2021-07-24 07:26:09,046  INFO Gbl:59 JVM: 1.8.0_271; Oracle Corporation; mixed mode; 64-bit
2021-07-24 07:26:09,046  INFO Gbl:63 OS: Windows 10; 10.0; amd64
2021-07-24 07:26:09,047  INFO Gbl:66 CPU cores: 8
2021-07-24 07:26:09,047  INFO Gbl:67 max. Memory: 1820.5MB (1908932608B)
2021-07-24 07:26:09,047  INFO Gbl:105 MATSim-Build: r2e52cf1f54a31596d20f378d536f9dd7a0a860bb (2018-08-25 22:17:05)
2021-07-24 07:26:09,049  INFO ControlerListenerManagerImpl:107 calling notifyStartup on org.matsim.counts.CountsControlerListener
2021-07-24 07:26:09,049  INFO ControlerListenerManagerImpl:107 calling notifyStartup on org.matsim.analysis.ModeStatsControlerListener
2021-07-24 07:26:09,052 DEBUG NetworkRoutingProvider:75 requesting network routing module with routingMode=car;	mode=car
2021-07-24 07:26:09,053  INFO NetworkImpl:167  node # 1
2021-07-24 07:26:09,053  INFO NetworkImpl:167  node # 4
2021-07-24 07:26:09,053  INFO NetworkImpl:167  node # 16
2021-07-24 07:26:09,054  INFO NetworkImpl:167  node # 64
2021-07-24 07:26:09,054  INFO NetworkImpl:167  node # 256
2021-07-24 07:26:09,054  INFO NetworkImpl:167  node # 1024
2021-07-24 07:26:09,056  INFO NetworkImpl:167  node # 4096
2021-07-24 07:26:09,060  INFO NetworkImpl:167  node # 16384
2021-07-24 07:26:09,071  INFO NetworkImpl:167  node # 65536
2021-07-24 07:26:09,080  INFO NetworkImpl:163  link # 1
2021-07-24 07:26:09,080  INFO NetworkImpl:163  link # 4
2021-07-24 07:26:09,080  INFO NetworkImpl:163  link # 16
2021-07-24 07:26:09,080  INFO NetworkImpl:163  link # 64
2021-07-24 07:26:09,081  INFO NetworkImpl:163  link # 256
2021-07-24 07:26:09,082  INFO NetworkImpl:163  link # 1024
2021-07-24 07:26:09,085  INFO NetworkImpl:163  link # 4096
2021-07-24 07:26:09,100  INFO NetworkImpl:163  link # 16384
2021-07-24 07:26:10,003  INFO NetworkImpl:163  link # 65536
2021-07-24 07:26:10,171  INFO ControlerListenerManagerImpl:107 calling notifyStartup on org.matsim.analysis.ScoreStatsControlerListener
2021-07-24 07:26:10,172  INFO ControlerListenerManagerImpl:110 all ControlerStartupListeners called.
2021-07-24 07:26:10,172  INFO ControlerUtils:58 config dump before iterations start
2021-07-24 07:26:10,174  INFO Config:561 setting context to [file:/D:/iUTS/VTD/MyEnv/Matsim-projects/matsim-codes/scenarios/seattle-formal-all/justAcase/MATSim/]
2021-07-24 07:26:10,181  INFO ControlerUtils:62 

<?xml version="1.0" encoding="UTF-8"?>
<!DOCTYPE config SYSTEM "http://www.matsim.org/files/dtd/config_v2.dtd">
<config>
<!-- ====================================================================== -->
	<module name="JDEQSim" >
		<param name="carSize" value="7.5" />
		<param name="endTime" value="undefined" />
		<param name="flowCapacityFactor" value="1.0" />
		<param name="gapTravelSpeed" value="15.0" />
		<param name="minimumInFlowCapacity" value="1800.0" />
		<param name="squeezeTime" value="1800.0" />
		<param name="storageCapacityFactor" value="1.0" />
	</module>
<!-- ====================================================================== -->
	<module name="TimeAllocationMutator" >
		<!-- Default:true; Defines whether time mutation changes an activity's duration. -->
		<param name="mutationAffectsDuration" value="true" />
		<!-- Default:1800.0; Defines how many seconds a time mutation can maximally shift a time. -->
		<param name="mutationRange" value="1800.0" />
		<!-- false; Use individual settings for each subpopulation. If enabled but no settings are found, regular settings are uses as fallback. -->
		<param name="useIndividualSettingsForSubpopulations" value="false" />
	</module>
<!-- ====================================================================== -->
<!-- ====================================================================== -->
	<module name="changeMode" >
		<param name="ignoreCarAvailability" value="true" />
		<param name="modes" value="car,pt" />
	</module>
<!-- ====================================================================== -->
	<module name="controler" >
		<!-- Sets whether graphs showing some analyses should automatically be generated during the simulation. The generation of graphs usually takes a small amount of time that does not have any weight in big simulations, but add a significant overhead in smaller runs or in test cases where the graphical output is not even requested. -->
		<param name="createGraphs" value="true" />
		<!-- true if at the end of a run, plans, network, config etc should be dumped to a file -->
		<param name="dumpDataAtEnd" value="true" />
		<!-- Default=false. If enabled, the router takes travel times needed for turning moves into account. Cannot be used if the (Fast)AStarLandmarks routing or TravelTimeCalculator.separateModes is enabled. -->
		<param name="enableLinkToLinkRouting" value="false" />
		<!-- Default=xml; Specifies the file format for writing events. Currently supported: xml.
		Multiple values can be specified separated by commas (','). -->
		<param name="eventsFileFormat" value="xml" />
		<!-- Default=0;  -->
		<param name="firstIteration" value="0" />
		<!-- Default=1000;  -->
		<param name="lastIteration" value="50" />
		<!-- Defines which mobility simulation will be used. Currently supported: qsim JDEQSim 
		Depending on the chosen mobsim, you'll have to add additional config modules to configure the corresponding mobsim.
		For 'qsim', add a module 'qsim' to the config. -->
		<param name="mobsim" value="qsim" />
		<param name="outputDirectory" value="scenarios\\seattle-formal-all\\justAcase\\MATSim\\0.output" />
		<!-- Possible values: failIfDirectoryExists, overwriteExistingFiles, deleteDirectoryIfExists -->
		<param name="overwriteFiles" value="failIfDirectoryExists" />
		<!-- The type of routing (least cost path) algorithm used, may have the values: Dijkstra, FastDijkstra, AStarLandmarks or FastAStarLandmarks -->
		<param name="routingAlgorithmType" value="Dijkstra" />
		<!-- An identifier for the current run which is used as prefix for output files and mentioned in output xml files etc. -->
		<param name="runId" value="null" />
		<!-- Comma-separated list of visualizer output file formats. `transims', `googleearth', and `otfvis'. -->
		<param name="snapshotFormat" value="" />
		<!-- iterationNumber % writeEventsInterval == 0 defines in which iterations events are written to a file. `0' disables events writing completely. -->
		<param name="writeEventsInterval" value="5" />
		<!-- iterationNumber % writePlansInterval == 0 defines (hopefully) in which iterations plans are written to a file. `0' disables plans writing completely.  Some plans in early iterations are always written -->
		<param name="writePlansInterval" value="10" />
		<!-- iterationNumber % writeSnapshotsInterval == 0 defines in which iterations snapshots are written to a file. `0' disables snapshots writing completely -->
		<param name="writeSnapshotsInterval" value="1" />
	</module>
<!-- ====================================================================== -->
	<module name="counts" >
		<!-- Transport modes that will be respected for the counts comparison. 'car' is default, which includes also bussed from the pt simulation module. Use this parameter in combination with 'filterModes' = true! -->
		<param name="analyzedModes" value="car" />
		<!-- Specifies over how many iterations the link volumes should be averaged that are used for the counts comparison. Use 1 or 0 to only use the link volumes of a single iteration. This values cannot be larger than the value specified for writeCountsInterval -->
		<param name="averageCountsOverIterations" value="5" />
		<!-- factor by which to re-scale the simulated values.  necessary when simulation runs with something different from 100%.  needs to be adapted manually -->
		<param name="countsScaleFactor" value="1.0" />
		<!-- distance to distanceFilterCenterNode to include counting stations. The unit of distance is the Euclidean distance implied by the coordinate system -->
		<param name="distanceFilter" value="null" />
		<!-- node id for center node of distance filter -->
		<param name="distanceFilterCenterNode" value="null" />
		<!-- If true, link counts from legs performed on modes not included in the 'analyzedModes' parameter are ignored. -->
		<param name="filterModes" value="false" />
		<!-- The Coordinates Reference System in which the coordinates are expressed in the input file. At import, the coordinates will be converted to the coordinate system defined in "global", and willbe converted back at export. If not specified, no conversion happens. -->
		<param name="inputCRS" value="null" />
		<!-- input file name to counts package -->
		<param name="inputCountsFile" value="null" />
		<!-- possible values: `html', `kml', `txt', `all' -->
		<param name="outputformat" value="txt" />
		<!-- Specifies how often the counts comparison should be calculated and written. -->
		<param name="writeCountsInterval" value="10" />
	</module>
<!-- ====================================================================== -->
	<module name="facilities" >
		<!-- If set to 'true', empty activity option will be created. -->
		<param name="addEmptyActivityOption" value="false" />
		<!-- Default is 'true'. In the case that a facility has no link assigned, the ActivityFacility can be assigned to the closest link. If there should be only one ActivityFacility per link and if no link-assignment should be done, set to 'false'.This will create a new ActivityFacility at the coordinate and the facility will not be assigned to a link. -->
		<param name="assigningLinksToFacilitiesIfMissing" value="true" />
		<!-- If set to 'true', opening time will be assigned to activity facilities from ActivityParams. Default is false. This will NOT override option 'addEmptyActivityOption'. -->
		<param name="assigningOpeningTime" value="false" />
		<!-- This defines how facilities should be created. Possible values: none fromFile setInScenario onePerActivityLocationInPlansFile  -->
		<param name="facilitiesSource" value="none" />
		<!-- A prefix to be used in activityFacility id. -->
		<param name="idPrefix" value="" />
		<!-- The Coordinates Reference System in which the coordinates are expressed in the input file. At import, the coordinates will be converted to the coordinate system defined in "global", and willbe converted back at export. If not specified, no conversion happens. -->
		<param name="inputCRS" value="null" />
		<param name="inputFacilitiesFile" value="null" />
		<param name="inputFacilityAttributesFile" value="null" />
		<!-- Sets whether all activities on a link should be collected within one ActivityFacility. Default is 'true'. If set to 'false', for each coordinate found in the population's activities a separate ActivityFacility will be created. -->
		<param name="oneFacilityPerLink" value="true" />
		<!-- If set to 'true' (which is the default), the link and coordinate attributes are replaced by null reference in the activities, as this information is now available via the facility. -->
		<param name="removingLinksAndCoordinates" value="true" />
	</module>
<!-- ====================================================================== -->
	<module name="global" >
		<param name="coordinateSystem" value="EPSG:32610" />
		<param name="insistingOnDeprecatedConfigVersion" value="true" />
		<!-- "global" number of threads.  This number is used, e.g., for replanning, but NOT in the mobsim.  This can typically be set to as many cores as you have available, or possibly even slightly more. -->
		<param name="numberOfThreads" value="1" />
		<param name="randomSeed" value="4711" />
	</module>
<!-- ====================================================================== -->
	<module name="households" >
		<param name="inputFile" value="null" />
		<param name="inputHouseholdAttributesFile" value="null" />
	</module>
<!-- ====================================================================== -->
	<module name="linkStats" >
		<!-- Specifies over how many iterations the link volumes should be averaged that are used for the link statistics. Use 1 or 0 to only use the link volumes of a single iteration. This values cannot be larger than the value specified for writeLinkStatsInterval -->
		<param name="averageLinkStatsOverIterations" value="5" />
		<!-- Specifies how often the link stats should be calculated and written. Use 0 to disable the generation of link stats. -->
		<param name="writeLinkStatsInterval" value="10" />
	</module>
<!-- ====================================================================== -->
	<module name="network" >
		<!-- The Coordinates Reference System in which the coordinates are expressed in the input file. At import, the coordinates will be converted to the coordinate system defined in "global", and willbe converted back at export. If not specified, no conversion happens. -->
		<param name="inputCRS" value="WGS84" />
		<param name="inputChangeEventsFile" value="null" />
		<param name="inputNetworkFile" value="Great_Seattle_addOn_ToOSM_ToMATSim.xml" />
		<param name="laneDefinitionsFile" value="null" />
		<param name="timeVariantNetwork" value="false" />
	</module>
<!-- ====================================================================== -->
	<module name="parallelEventHandling" >
		<!-- Estimated number of events during mobsim run. An optional optimization hint for the framework. -->
		<param name="estimatedNumberOfEvents" value="null" />
		<!-- Number of threads for parallel events handler. _null_ means the framework decides by itself. 0 is currently not possible. -->
		<param name="numberOfThreads" value="null" />
		<!-- If enabled, each event handler is assigned to its own thread. Note that enabling this feature disabled the numberOfThreads option! This feature is still experimental! -->
		<param name="oneThreadPerHandler" value="false" />
		<!-- If enabled, it is ensured that all events that are created during a time step of the mobility simulation are processed before the next time step is simulated. E.g. neccessary when within-day replanning is used. -->
		<param name="synchronizeOnSimSteps" value="true" />
	</module>
<!-- ====================================================================== -->
	<module name="planCalcScore" >
		<!-- logit model scale parameter. default: 1.  Has name and default value for historical reasons (see Bryan Raney's phd thesis). -->
		<param name="BrainExpBeta" value="2.0" />
		<param name="PathSizeLogitBeta" value="1.0" />
		<!-- fraction of iterations at which MSA score averaging is started. The matsim theory department suggests to use this together with switching off choice set innovation (where a similar switch exists), but it has not been tested yet. -->
		<param name="fractionOfIterationsToStartScoreMSA" value="null" />
		<!-- new_score = (1-learningRate)*old_score + learningRate * score_from_mobsim.  learning rates close to zero emulate score averaging, but slow down initial convergence -->
		<param name="learningRate" value="1.0" />
		<!-- There used to be a plateau between duration=0 and duration=zeroUtilityDuration. This caused durations to evolve to zero once they were below zeroUtilityDuration, causing problems.  Only use this switch if you need to be backwards compatible with some old results.  (changed nov'13) -->
		<param name="usingOldScoringBelowZeroUtilityDuration" value="false" />
		<!-- write a plans file in each iteration directory which contains what each agent actually did, and the score it received. -->
		<param name="writeExperiencedPlans" value="false" />
		<parameterset type="scoringParameters" >
			<param name="earlyDeparture" value="-0.0" />
			<param name="lateArrival" value="-18.0" />
			<param name="marginalUtilityOfMoney" value="1.0" />
			<param name="performing" value="6.0" />
			<param name="subpopulation" value="null" />
			<param name="utilityOfLineSwitch" value="-1.0" />
			<param name="waiting" value="-0.0" />
			<param name="waitingPt" value="-6.0" />
			<parameterset type="activityParams" >
				<param name="activityType" value="dummy" />
				<param name="closingTime" value="undefined" />
				<param name="earliestEndTime" value="undefined" />
				<param name="latestStartTime" value="undefined" />
				<param name="minimalDuration" value="undefined" />
				<param name="openingTime" value="undefined" />
				<param name="priority" value="1.0" />
				<param name="scoringThisActivityAtAll" value="true" />
				<!-- typical duration of activity.  needs to be defined and non-zero.  in sec. -->
				<param name="typicalDuration" value="02:00:00" />
				<!-- method to compute score at typical duration.  Options: | uniform | relative | Use uniform for backwards compatibility (all activities same score; higher proba to drop long acts). -->
				<param name="typicalDurationScoreComputation" value="relative" />
			</parameterset>
			<parameterset type="activityParams" >
				<param name="activityType" value="car interaction" />
				<param name="closingTime" value="undefined" />
				<param name="earliestEndTime" value="undefined" />
				<param name="latestStartTime" value="undefined" />
				<param name="minimalDuration" value="undefined" />
				<param name="openingTime" value="undefined" />
				<param name="priority" value="1.0" />
				<param name="scoringThisActivityAtAll" value="false" />
				<!-- typical duration of activity.  needs to be defined and non-zero.  in sec. -->
				<param name="typicalDuration" value="undefined" />
				<!-- method to compute score at typical duration.  Options: | uniform | relative | Use uniform for backwards compatibility (all activities same score; higher proba to drop long acts). -->
				<param name="typicalDurationScoreComputation" value="relative" />
			</parameterset>
			<parameterset type="activityParams" >
				<param name="activityType" value="pt interaction" />
				<param name="closingTime" value="undefined" />
				<param name="earliestEndTime" value="undefined" />
				<param name="latestStartTime" value="undefined" />
				<param name="minimalDuration" value="undefined" />
				<param name="openingTime" value="undefined" />
				<param name="priority" value="1.0" />
				<param name="scoringThisActivityAtAll" value="false" />
				<!-- typical duration of activity.  needs to be defined and non-zero.  in sec. -->
				<param name="typicalDuration" value="undefined" />
				<!-- method to compute score at typical duration.  Options: | uniform | relative | Use uniform for backwards compatibility (all activities same score; higher proba to drop long acts). -->
				<param name="typicalDurationScoreComputation" value="relative" />
			</parameterset>
			<parameterset type="activityParams" >
				<param name="activityType" value="bike interaction" />
				<param name="closingTime" value="undefined" />
				<param name="earliestEndTime" value="undefined" />
				<param name="latestStartTime" value="undefined" />
				<param name="minimalDuration" value="undefined" />
				<param name="openingTime" value="undefined" />
				<param name="priority" value="1.0" />
				<param name="scoringThisActivityAtAll" value="false" />
				<!-- typical duration of activity.  needs to be defined and non-zero.  in sec. -->
				<param name="typicalDuration" value="undefined" />
				<!-- method to compute score at typical duration.  Options: | uniform | relative | Use uniform for backwards compatibility (all activities same score; higher proba to drop long acts). -->
				<param name="typicalDurationScoreComputation" value="relative" />
			</parameterset>
			<parameterset type="activityParams" >
				<param name="activityType" value="other interaction" />
				<param name="closingTime" value="undefined" />
				<param name="earliestEndTime" value="undefined" />
				<param name="latestStartTime" value="undefined" />
				<param name="minimalDuration" value="undefined" />
				<param name="openingTime" value="undefined" />
				<param name="priority" value="1.0" />
				<param name="scoringThisActivityAtAll" value="false" />
				<!-- typical duration of activity.  needs to be defined and non-zero.  in sec. -->
				<param name="typicalDuration" value="undefined" />
				<!-- method to compute score at typical duration.  Options: | uniform | relative | Use uniform for backwards compatibility (all activities same score; higher proba to drop long acts). -->
				<param name="typicalDurationScoreComputation" value="relative" />
			</parameterset>
			<parameterset type="activityParams" >
				<param name="activityType" value="walk interaction" />
				<param name="closingTime" value="undefined" />
				<param name="earliestEndTime" value="undefined" />
				<param name="latestStartTime" value="undefined" />
				<param name="minimalDuration" value="undefined" />
				<param name="openingTime" value="undefined" />
				<param name="priority" value="1.0" />
				<param name="scoringThisActivityAtAll" value="false" />
				<!-- typical duration of activity.  needs to be defined and non-zero.  in sec. -->
				<param name="typicalDuration" value="undefined" />
				<!-- method to compute score at typical duration.  Options: | uniform | relative | Use uniform for backwards compatibility (all activities same score; higher proba to drop long acts). -->
				<param name="typicalDurationScoreComputation" value="relative" />
			</parameterset>
			<parameterset type="activityParams" >
				<param name="activityType" value="home" />
				<param name="closingTime" value="undefined" />
				<param name="earliestEndTime" value="undefined" />
				<param name="latestStartTime" value="undefined" />
				<param name="minimalDuration" value="08:00:00" />
				<param name="openingTime" value="undefined" />
				<param name="priority" value="1.0" />
				<param name="scoringThisActivityAtAll" value="true" />
				<!-- typical duration of activity.  needs to be defined and non-zero.  in sec. -->
				<param name="typicalDuration" value="12:00:00" />
				<!-- method to compute score at typical duration.  Options: | uniform | relative | Use uniform for backwards compatibility (all activities same score; higher proba to drop long acts). -->
				<param name="typicalDurationScoreComputation" value="relative" />
			</parameterset>
			<parameterset type="activityParams" >
				<param name="activityType" value="work" />
				<param name="closingTime" value="18:00:00" />
				<param name="earliestEndTime" value="undefined" />
				<param name="latestStartTime" value="09:00:00" />
				<param name="minimalDuration" value="06:00:00" />
				<param name="openingTime" value="07:00:00" />
				<param name="priority" value="1.0" />
				<param name="scoringThisActivityAtAll" value="true" />
				<!-- typical duration of activity.  needs to be defined and non-zero.  in sec. -->
				<param name="typicalDuration" value="08:00:00" />
				<!-- method to compute score at typical duration.  Options: | uniform | relative | Use uniform for backwards compatibility (all activities same score; higher proba to drop long acts). -->
				<param name="typicalDurationScoreComputation" value="relative" />
			</parameterset>
			<parameterset type="modeParams" >
				<!-- [utils] alternative-specific constant.  no guarantee that this is used anywhere. default=0 to be backwards compatible for the time being -->
				<param name="constant" value="0.0" />
				<!-- [utils/m] utility of walking per m, normally negative.  this is on top of the time (dis)utility. -->
				<param name="marginalUtilityOfDistance_util_m" value="0.0" />
				<!-- [utils/hr] additional marginal utility of traveling.  normally negative.  this comes on top of the opportunity cost of time -->
				<param name="marginalUtilityOfTraveling_util_hr" value="-6.0" />
				<param name="mode" value="car" />
				<!-- [unit_of_money/m] conversion of distance into money. Normally negative. -->
				<param name="monetaryDistanceRate" value="0.0" />
			</parameterset>
			<parameterset type="modeParams" >
				<!-- [utils] alternative-specific constant.  no guarantee that this is used anywhere. default=0 to be backwards compatible for the time being -->
				<param name="constant" value="0.0" />
				<!-- [utils/m] utility of walking per m, normally negative.  this is on top of the time (dis)utility. -->
				<param name="marginalUtilityOfDistance_util_m" value="0.0" />
				<!-- [utils/hr] additional marginal utility of traveling.  normally negative.  this comes on top of the opportunity cost of time -->
				<param name="marginalUtilityOfTraveling_util_hr" value="-6.0" />
				<param name="mode" value="pt" />
				<!-- [unit_of_money/m] conversion of distance into money. Normally negative. -->
				<param name="monetaryDistanceRate" value="0.0" />
			</parameterset>
			<parameterset type="modeParams" >
				<!-- [utils] alternative-specific constant.  no guarantee that this is used anywhere. default=0 to be backwards compatible for the time being -->
				<param name="constant" value="0.0" />
				<!-- [utils/m] utility of walking per m, normally negative.  this is on top of the time (dis)utility. -->
				<param name="marginalUtilityOfDistance_util_m" value="0.0" />
				<!-- [utils/hr] additional marginal utility of traveling.  normally negative.  this comes on top of the opportunity cost of time -->
				<param name="marginalUtilityOfTraveling_util_hr" value="-6.0" />
				<param name="mode" value="walk" />
				<!-- [unit_of_money/m] conversion of distance into money. Normally negative. -->
				<param name="monetaryDistanceRate" value="0.0" />
			</parameterset>
			<parameterset type="modeParams" >
				<!-- [utils] alternative-specific constant.  no guarantee that this is used anywhere. default=0 to be backwards compatible for the time being -->
				<param name="constant" value="0.0" />
				<!-- [utils/m] utility of walking per m, normally negative.  this is on top of the time (dis)utility. -->
				<param name="marginalUtilityOfDistance_util_m" value="0.0" />
				<!-- [utils/hr] additional marginal utility of traveling.  normally negative.  this comes on top of the opportunity cost of time -->
				<param name="marginalUtilityOfTraveling_util_hr" value="-6.0" />
				<param name="mode" value="bike" />
				<!-- [unit_of_money/m] conversion of distance into money. Normally negative. -->
				<param name="monetaryDistanceRate" value="0.0" />
			</parameterset>
			<parameterset type="modeParams" >
				<!-- [utils] alternative-specific constant.  no guarantee that this is used anywhere. default=0 to be backwards compatible for the time being -->
				<param name="constant" value="0.0" />
				<!-- [utils/m] utility of walking per m, normally negative.  this is on top of the time (dis)utility. -->
				<param name="marginalUtilityOfDistance_util_m" value="0.0" />
				<!-- [utils/hr] additional marginal utility of traveling.  normally negative.  this comes on top of the opportunity cost of time -->
				<param name="marginalUtilityOfTraveling_util_hr" value="-6.0" />
				<param name="mode" value="ride" />
				<!-- [unit_of_money/m] conversion of distance into money. Normally negative. -->
				<param name="monetaryDistanceRate" value="0.0" />
			</parameterset>
			<parameterset type="modeParams" >
				<!-- [utils] alternative-specific constant.  no guarantee that this is used anywhere. default=0 to be backwards compatible for the time being -->
				<param name="constant" value="0.0" />
				<!-- [utils/m] utility of walking per m, normally negative.  this is on top of the time (dis)utility. -->
				<param name="marginalUtilityOfDistance_util_m" value="0.0" />
				<!-- [utils/hr] additional marginal utility of traveling.  normally negative.  this comes on top of the opportunity cost of time -->
				<param name="marginalUtilityOfTraveling_util_hr" value="-6.0" />
				<param name="mode" value="other" />
				<!-- [unit_of_money/m] conversion of distance into money. Normally negative. -->
				<param name="monetaryDistanceRate" value="0.0" />
			</parameterset>
		</parameterset>
	</module>
<!-- ====================================================================== -->
	<module name="plans" >
		<!-- String: minOfDurationAndEndTime tryEndTimeThenDuration endTimeOnly. Anything besides minOfDurationAndEndTime will internally use a different (simpler) version of the TimeAllocationMutator. -->
		<param name="activityDurationInterpretation" value="tryEndTimeThenDuration" />
		<!-- The Coordinates Reference System in which the coordinates are expressed in the input file. At import, the coordinates will be converted to the coordinate system defined in "global", and willbe converted back at export. If not specified, no conversion happens. -->
		<param name="inputCRS" value="null" />
		<!-- Path to a file containing person attributes (required file format: ObjectAttributes). -->
		<param name="inputPersonAttributesFile" value="null" />
		<param name="inputPlansFile" value="Great_Seattle_addOn_ToOSM_ToMATSim_randomPlan.xml" />
		<!-- Defines how routes are stored in memory. Currently supported: LinkNetworkRoute, CompressedNetworkRoute. -->
		<param name="networkRouteType" value="LinkNetworkRoute" />
		<!-- (not tested) will remove plan attributes that are presumably not used, such as activityStartTime. default=false -->
		<param name="removingUnnecessaryPlanAttributes" value="false" />
		<!-- Name of the (Object)Attribute defining the subpopulation to which pertains a Person (as freight, through traffic, etc.). The attribute must be of String type.  Change away from default only in desperate situations. -->
		<param name="subpopulationAttributeName" value="subpopulation" />
	</module>
<!-- ====================================================================== -->
	<module name="planscalcroute" >
		<!-- All the modes for which the router is supposed to generate network routes (like car) -->
		<param name="networkModes" value="car" />
		<parameterset type="teleportedModeParameters" >
			<param name="beelineDistanceFactor" value="1.3" />
			<param name="mode" value="bike" />
			<!-- Free-speed factor for a teleported mode. Travel time = teleportedModeFreespeedFactor * <freespeed car travel time>. Insert a line like this for every such mode. Please do not set teleportedModeFreespeedFactor as well as teleportedModeSpeed for the same mode, but if you do, +teleportedModeFreespeedFactor wins over teleportedModeSpeed. -->
			<param name="teleportedModeFreespeedFactor" value="null" />
			<!-- Speed for a teleported mode. Travel time = (<beeline distance> * beelineDistanceFactor) / teleportedModeSpeed. Insert a line like this for every such mode. -->
			<param name="teleportedModeSpeed" value="4.166666666666667" />
		</parameterset>
		<parameterset type="teleportedModeParameters" >
			<param name="beelineDistanceFactor" value="1.3" />
			<param name="mode" value="walk" />
			<!-- Free-speed factor for a teleported mode. Travel time = teleportedModeFreespeedFactor * <freespeed car travel time>. Insert a line like this for every such mode. Please do not set teleportedModeFreespeedFactor as well as teleportedModeSpeed for the same mode, but if you do, +teleportedModeFreespeedFactor wins over teleportedModeSpeed. -->
			<param name="teleportedModeFreespeedFactor" value="null" />
			<!-- Speed for a teleported mode. Travel time = (<beeline distance> * beelineDistanceFactor) / teleportedModeSpeed. Insert a line like this for every such mode. -->
			<param name="teleportedModeSpeed" value="0.8333333333333333" />
		</parameterset>
		<parameterset type="teleportedModeParameters" >
			<param name="beelineDistanceFactor" value="1.3" />
			<param name="mode" value="access_walk" />
			<!-- Free-speed factor for a teleported mode. Travel time = teleportedModeFreespeedFactor * <freespeed car travel time>. Insert a line like this for every such mode. Please do not set teleportedModeFreespeedFactor as well as teleportedModeSpeed for the same mode, but if you do, +teleportedModeFreespeedFactor wins over teleportedModeSpeed. -->
			<param name="teleportedModeFreespeedFactor" value="null" />
			<!-- Speed for a teleported mode. Travel time = (<beeline distance> * beelineDistanceFactor) / teleportedModeSpeed. Insert a line like this for every such mode. -->
			<param name="teleportedModeSpeed" value="0.8333333333333333" />
		</parameterset>
		<parameterset type="teleportedModeParameters" >
			<param name="beelineDistanceFactor" value="1.3" />
			<param name="mode" value="egress_walk" />
			<!-- Free-speed factor for a teleported mode. Travel time = teleportedModeFreespeedFactor * <freespeed car travel time>. Insert a line like this for every such mode. Please do not set teleportedModeFreespeedFactor as well as teleportedModeSpeed for the same mode, but if you do, +teleportedModeFreespeedFactor wins over teleportedModeSpeed. -->
			<param name="teleportedModeFreespeedFactor" value="null" />
			<!-- Speed for a teleported mode. Travel time = (<beeline distance> * beelineDistanceFactor) / teleportedModeSpeed. Insert a line like this for every such mode. -->
			<param name="teleportedModeSpeed" value="0.8333333333333333" />
		</parameterset>
		<parameterset type="teleportedModeParameters" >
			<param name="beelineDistanceFactor" value="1.3" />
			<param name="mode" value="undefined" />
			<!-- Free-speed factor for a teleported mode. Travel time = teleportedModeFreespeedFactor * <freespeed car travel time>. Insert a line like this for every such mode. Please do not set teleportedModeFreespeedFactor as well as teleportedModeSpeed for the same mode, but if you do, +teleportedModeFreespeedFactor wins over teleportedModeSpeed. -->
			<param name="teleportedModeFreespeedFactor" value="null" />
			<!-- Speed for a teleported mode. Travel time = (<beeline distance> * beelineDistanceFactor) / teleportedModeSpeed. Insert a line like this for every such mode. -->
			<param name="teleportedModeSpeed" value="13.88888888888889" />
		</parameterset>
		<parameterset type="teleportedModeParameters" >
			<param name="beelineDistanceFactor" value="1.3" />
			<param name="mode" value="ride" />
			<!-- Free-speed factor for a teleported mode. Travel time = teleportedModeFreespeedFactor * <freespeed car travel time>. Insert a line like this for every such mode. Please do not set teleportedModeFreespeedFactor as well as teleportedModeSpeed for the same mode, but if you do, +teleportedModeFreespeedFactor wins over teleportedModeSpeed. -->
			<param name="teleportedModeFreespeedFactor" value="1.0" />
			<!-- Speed for a teleported mode. Travel time = (<beeline distance> * beelineDistanceFactor) / teleportedModeSpeed. Insert a line like this for every such mode. -->
			<param name="teleportedModeSpeed" value="null" />
		</parameterset>
		<parameterset type="teleportedModeParameters" >
			<param name="beelineDistanceFactor" value="1.3" />
			<param name="mode" value="pt" />
			<!-- Free-speed factor for a teleported mode. Travel time = teleportedModeFreespeedFactor * <freespeed car travel time>. Insert a line like this for every such mode. Please do not set teleportedModeFreespeedFactor as well as teleportedModeSpeed for the same mode, but if you do, +teleportedModeFreespeedFactor wins over teleportedModeSpeed. -->
			<param name="teleportedModeFreespeedFactor" value="2.0" />
			<!-- Speed for a teleported mode. Travel time = (<beeline distance> * beelineDistanceFactor) / teleportedModeSpeed. Insert a line like this for every such mode. -->
			<param name="teleportedModeSpeed" value="null" />
		</parameterset>
	</module>
<!-- ====================================================================== -->
	<module name="ptCounts" >
		<!-- factor by which to re-scale the simulated values.  necessary when simulation runs with something different from 100%.  needs to be adapted manually -->
		<param name="countsScaleFactor" value="1.0" />
		<!-- distance to distanceFilterCenterNode to include counting stations. The unit of distance is the Euclidean distance implied by the coordinate system -->
		<param name="distanceFilter" value="null" />
		<!-- node id for center node of distance filter -->
		<param name="distanceFilterCenterNode" value="null" />
		<!-- input file containing the alighting (getting off) counts for pt -->
		<param name="inputAlightCountsFile" value="null" />
		<!-- input file containing the boarding (getting on) counts for pt -->
		<param name="inputBoardCountsFile" value="null" />
		<!-- input file containing the occupancy counts for pt -->
		<param name="inputOccupancyCountsFile" value="null" />
		<!-- possible values: `html', `kml', `txt', `all' -->
		<param name="outputformat" value="null" />
		<!-- every how many iterations (starting with 0) counts comparisons are generated -->
		<param name="ptCountsInterval" value="10" />
	</module>
<!-- ====================================================================== -->
	<module name="qsim" >
		<!-- If set to true, creates a vehicle for each person corresponding to every network mode. However, this will be overridden if vehicle source is fromVehiclesData. -->
		<param name="creatingVehiclesForAllNetworkModes" value="true" />
		<param name="endTime" value="00:00:00" />
		<param name="flowCapacityFactor" value="1.0" />
		<!-- decides if waiting vehicles enter the network after or before the already driving vehicles were moved. Default: false -->
		<param name="insertingWaitingVehiclesBeforeDrivingVehicles" value="false" />
		<!-- If link dynamics is set as SeepageQ, set to false if all seep modes should perform seepage. Default is true (better option). -->
		<param name="isRestrictingSeepage" value="true" />
		<!-- If link dynamics is set as SeepageQ, set to true if seep mode do not consumes any space on the link. Default is false. -->
		<param name="isSeepModeStorageFree" value="false" />
		<!-- default: FIFO; options: FIFO PassingQ SeepageQ -->
		<param name="linkDynamics" value="FIFO" />
		<!-- The (initial) width of the links of the network. Use positive floating point values. This is used only for visualisation. -->
		<param name="linkWidth" value="30.0" />
		<!-- [comma-separated list] Defines which modes are congested modes. Technically, these are the modes that the departure handler of the netsimengine handles.  Effective cell size, effective lane width, flow capacity factor, and storage capacity factor need to be set with diligence.  Need to be vehicular modes to make sense. -->
		<param name="mainMode" value="car" />
		<!-- Shortens a link in the visualization, i.e. its start and end point are moved into towards the center. Does not affect traffic flow.  -->
		<param name="nodeOffset" value="0.0" />
		<!-- Number of threads used for the QSim.  Note that this setting is independent from the "global" threads setting.  In contrast to earlier versions, the non-parallel special version is no longer there. -->
		<param name="numberOfThreads" value="1" />
		<!-- Boolean. `true': stuck vehicles are removed, aborting the plan; `false': stuck vehicles are forced into the next link. `false' is probably the better choice. -->
		<param name="removeStuckVehicles" value="false" />
		<!-- If link dynamics is set as SeepageQ, set a seep mode. Default is bike. -->
		<param name="seepMode" value="bike" />
		<!-- Possible values: minOfEndtimeAndMobsimFinished, onlyUseEndtime -->
		<param name="simEndtimeInterpretation" value="null" />
		<!-- Options: maxOfStarttimeAndEarliestActivityEnd onlyUseStarttime  -->
		<param name="simStarttimeInterpretation" value="maxOfStarttimeAndEarliestActivityEnd" />
		<!-- snapshotStyle. One of: equiDist queue withHoles withHolesAndShowHoles kinematicWaves  -->
		<param name="snapshotStyle" value="equiDist" />
		<param name="snapshotperiod" value="00:00:00" />
		<param name="startTime" value="00:00:00" />
		<param name="storageCapacityFactor" value="1.0" />
		<!-- time in seconds.  Time after which the frontmost vehicle on a link is called `stuck' if it does not move. -->
		<param name="stuckTime" value="10.0" />
		<param name="timeStepSize" value="00:00:01" />
		<!-- options: queue withHoles kinematicWaves  -->
		<param name="trafficDynamics" value="queue" />
		<!-- Set this parameter to true if lanes should be used, false if not. -->
		<param name="useLanes" value="false" />
		<!-- If a route does not reference a vehicle, agents will use the vehicle with the same id as their own. -->
		<param name="usePersonIdForMissingVehicleId" value="true" />
		<!-- If false, the qsim accumulates fractional flows up to one flow unit in every time step.  If true, flows are updated only if an agent wants to enter the link or an agent is added to buffer. Default is true. -->
		<param name="usingFastCapacityUpdate" value="true" />
		<!-- if the qsim should use as many runners as there are threads (Christoph's dissertation version) or more of them, together with a thread pool (seems to be faster in some situations, but is not tested). -->
		<param name="usingThreadpool" value="true" />
		<!-- Defines what happens if an agent wants to depart, but the specified vehicle is not available. One of: teleport wait exception  -->
		<param name="vehicleBehavior" value="teleport" />
		<!-- If vehicles should all be the same default vehicle, or come from the vehicles file, or something else.  Possible values:  defaultVehicle modeVehicleTypesFromVehiclesData fromVehiclesData -->
		<param name="vehiclesSource" value="defaultVehicle" />
	</module>
<!-- ====================================================================== -->
	<module name="scenario" >
	</module>
<!-- ====================================================================== -->
	<module name="strategy" >
		<!-- the external executable will be called with a config file as argument.  This is the pathname to a possible skeleton config, to which additional information will be added.  Can be null. -->
		<param name="ExternalExeConfigTemplate" value="null" />
		<!-- time out value (in seconds) after which matsim will consider the external strategy as failed -->
		<param name="ExternalExeTimeOut" value="3600" />
		<!-- root directory for temporary files generated by the external executable. Provided as a service; I don't think this is used by MATSim. -->
		<param name="ExternalExeTmpFileRootDir" value="null" />
		<!-- fraction of iterations where innovative strategies are switched off.  Something link 0.8 should be good.  E.g. if you run from iteration 400 to iteration 500, innovation is switched off at iteration 480 -->
		<param name="fractionOfIterationsToDisableInnovation" value="Infinity" />
		<!-- maximum number of plans per agent.  ``0'' means ``infinity''.  Currently (2010), ``5'' is a good number -->
		<param name="maxAgentPlanMemorySize" value="5" />
		<!-- strategyName of PlanSelector for plans removal.  Possible defaults: WorstPlanSelector SelectRandom SelectExpBetaForRemoval ChangeExpBetaForRemoval PathSizeLogitSelectorForRemoval . The current default, WorstPlanSelector is not a good choice from a discrete choice theoretical perspective. Alternatives, however, have not been systematically tested. kai, feb'12 -->
		<param name="planSelectorForRemoval" value="WorstPlanSelector" />
		<parameterset type="strategysettings" >
			<!-- iteration after which strategy will be disabled.  most useful for ``innovative'' strategies (new routes, new times, ...). Normally, better use fractionOfIterationsToDisableInnovation -->
			<param name="disableAfterIteration" value="-1" />
			<!-- path to external executable (if applicable) -->
			<param name="executionPath" value="null" />
			<!-- strategyName of strategy.  Possible default names: SelectRandomBestScoreKeepLastSelectedChangeExpBetaSelectExpBetaSelectPathSizeLogit (selectors), ReRoute TimeAllocationMutator ChangeLegMode TimeAllocationMutator_ReRoute ChangeSingleLegMode ChangeSingleTripMode SubtourModeChoice ChangeTripMode TripSubtourModeChoice  (innovative strategies). -->
			<param name="strategyName" value="BestScore" />
			<!-- subpopulation to which the strategy applies. "null" refers to the default population, that is, the set of persons for which no explicit subpopulation is defined (ie no subpopulation attribute) -->
			<param name="subpopulation" value="null" />
			<!-- weight of a strategy: for each agent, a strategy will be selected with a probability proportional to its weight -->
			<param name="weight" value="0.9" />
		</parameterset>
		<parameterset type="strategysettings" >
			<!-- iteration after which strategy will be disabled.  most useful for ``innovative'' strategies (new routes, new times, ...). Normally, better use fractionOfIterationsToDisableInnovation -->
			<param name="disableAfterIteration" value="-1" />
			<!-- path to external executable (if applicable) -->
			<param name="executionPath" value="null" />
			<!-- strategyName of strategy.  Possible default names: SelectRandomBestScoreKeepLastSelectedChangeExpBetaSelectExpBetaSelectPathSizeLogit (selectors), ReRoute TimeAllocationMutator ChangeLegMode TimeAllocationMutator_ReRoute ChangeSingleLegMode ChangeSingleTripMode SubtourModeChoice ChangeTripMode TripSubtourModeChoice  (innovative strategies). -->
			<param name="strategyName" value="ReRoute" />
			<!-- subpopulation to which the strategy applies. "null" refers to the default population, that is, the set of persons for which no explicit subpopulation is defined (ie no subpopulation attribute) -->
			<param name="subpopulation" value="null" />
			<!-- weight of a strategy: for each agent, a strategy will be selected with a probability proportional to its weight -->
			<param name="weight" value="0.1" />
		</parameterset>
	</module>
<!-- ====================================================================== -->
	<module name="subtourModeChoice" >
		<!-- Defines the chain-based modes, seperated by commas -->
		<param name="chainBasedModes" value="car,bike" />
		<!-- Defines whether car availability must be considered or not. A agent has no car only if it has no license, or never access to a car -->
		<param name="considerCarAvailability" value="false" />
		<!-- Defines all the modes available, including chain-based modes, seperated by commas -->
		<param name="modes" value="car,pt,bike,walk" />
	</module>
<!-- ====================================================================== -->
	<module name="transit" >
		<!-- The Coordinates Reference System in which the coordinates are expressed in the input file. At import, the coordinates will be converted to the coordinate system defined in "global", and willbe converted back at export. If not specified, no conversion happens. -->
		<param name="inputScheduleCRS" value="null" />
		<!-- Optional input file containing additional attributes for transit lines, stored as ObjectAttributes. -->
		<param name="transitLinesAttributesFile" value="null" />
		<!-- Comma-separated list of transportation modes that are handled as transit. Defaults to 'pt'. -->
		<param name="transitModes" value="pt" />
		<!-- Input file containing the transit schedule to be simulated. -->
		<param name="transitScheduleFile" value="null" />
		<!-- Optional input file containing additional attributes for transit stop facilities, stored as ObjectAttributes. -->
		<param name="transitStopsAttributesFile" value="null" />
		<!-- Set this parameter to true if transit should be simulated, false if not. -->
		<param name="useTransit" value="false" />
		<!-- Input file containing the vehicles used by the departures in the transit schedule. -->
		<param name="vehiclesFile" value="null" />
	</module>
<!-- ====================================================================== -->
	<module name="transitRouter" >
		<!-- additional time the router allocates when a line switch happens. Can be interpreted as a 'safety' time that agents need to safely transfer from one line to another -->
		<param name="additionalTransferTime" value="0.0" />
		<!-- Factor with which direct walk generalized cost is multiplied before it is compared to the pt generalized cost.  Set to a very high value to reduce direct walk results. -->
		<param name="directWalkFactor" value="1.0" />
		<!-- step size to increase searchRadius if no stops are found -->
		<param name="extensionRadius" value="200.0" />
		<!-- maximum beeline distance between stops that agents could transfer to by walking -->
		<param name="maxBeelineWalkConnectionDistance" value="100.0" />
		<!-- the radius in which stop locations are searched, given a start or target coordinate -->
		<param name="searchRadius" value="1000.0" />
	</module>
<!-- ====================================================================== -->
	<module name="travelTimeCalculator" >
		<!-- Transport modes that will be respected by the travel time collector. 'car' is default, which includes also busses from the pt simulation module. Use this parameter in combination with 'filterModes' = true! -->
		<param name="analyzedModes" value="car" />
		<param name="calculateLinkToLinkTravelTimes" value="false" />
		<param name="calculateLinkTravelTimes" value="true" />
		<!-- If true, link travel times from legs performed on modes not included in the 'analyzedModes' parameter are ignored. -->
		<param name="filterModes" value="false" />
		<!-- The lenght (in sec) of the time period that is splited into time bins; an additional time bin is created to aggregate all travel times collected after maxTime -->
		<param name="maxTime" value="108000" />
		<!-- If true, link travel times are measured and calculated separately for each mode in analyzedModes. Other modes are ignored. If true, filterModes has no effect. -->
		<param name="separateModes" value="false" />
		<!-- How to deal with congested time bins that have no link entry events. `optimistic' assumes free speed (too optimistic); 'experimental_LastMile' is experimental and probably too pessimistic. -->
		<param name="travelTimeAggregator" value="optimistic" />
		<!-- The size of the time bin (in sec) into which the link travel times are aggregated for the router -->
		<param name="travelTimeBinSize" value="900" />
		<!-- possible values: TravelTimeCalculatorArray TravelTimeCalculatorHashMap  -->
		<param name="travelTimeCalculator" value="TravelTimeCalculatorArray" />
		<!-- How to deal with link entry times at different positions during the time bin. Currently supported: average, linearinterpolation -->
		<param name="travelTimeGetter" value="average" />
	</module>
<!-- ====================================================================== -->
	<module name="vehicles" >
		<param name="vehiclesFile" value="null" />
	</module>
<!-- ====================================================================== -->
	<module name="vspExperimental" >
		<!-- (do not use except of you have to) There was a problem with pt interaction scoring.  Some people solved it by overwriting the parameters of the pt interaction activity type.  Doing this now throws an Exception.  If you still insist on doing this, set the following to true. -->
		<param name="isAbleToOverwritePtInteractionParams" value="false" />
		<param name="isGeneratingBoardingDeniedEvent" value="false" />
		<!-- if an approximation of the opportunity cost of time is included into the radius calculation for location choice.`true' will be faster, but it is an approximation.  Default is `true'; `false' is available for backwards compatibility. -->
		<param name="isUsingOpportunityCostOfTimeForLocationChoice" value="true" />
		<param name="logitScaleParamForPlansRemoval" value="1.0" />
		<!-- Options: | ignore | info | warn | abort | .  When violating VSP defaults, this results in nothing, logfile infos, logfile warnings, or aborts.  Members of VSP should use `abort' or talk to kai. -->
		<param name="vspDefaultsCheckingLevel" value="ignore" />
		<!-- if true then writes output_events in output directory.  default is `false'. Will only work when lastIteration is multiple of events writing interval -->
		<param name="writingOutputEvents" value="true" />
	</module>
<!-- ====================================================================== -->

</config>

2021-07-24 07:26:10,195  INFO ControlerUtils:63 Complete config dump done.
2021-07-24 07:26:10,196  INFO ControlerUtils:64 Checking consistency of config...
2021-07-24 07:26:10,196  INFO VspConfigConsistencyCheckerImpl:58 NOT running vsp config consistency check because vsp defaults checking level is set to IGNORE
2021-07-24 07:26:10,197  INFO ControlerUtils:66 Checking consistency of config done.
2021-07-24 07:26:10,235 DEBUG NetworkRoutingProvider:75 requesting network routing module with routingMode=car;	mode=car
2021-07-24 07:26:10,258  INFO Counter:61 [PersonPrepareForSim] handled person # 1
2021-07-24 07:26:10,259  INFO Counter:61 [PersonPrepareForSim] handled person # 2
2021-07-24 07:26:10,259  INFO Counter:61 [PersonPrepareForSim] handled person # 4
2021-07-24 07:26:10,259  INFO Counter:61 [PersonPrepareForSim] handled person # 8
2021-07-24 07:26:10,259  INFO Counter:61 [PersonPrepareForSim] handled person # 16
2021-07-24 07:26:10,259  INFO Counter:67 [PersonPrepareForSim] handled person # 30
2021-07-24 07:26:10,260  INFO Counter:61  vehicles # 1
2021-07-24 07:26:10,260  INFO Counter:61  vehicles # 2
2021-07-24 07:26:10,260  INFO Counter:61  vehicles # 4
2021-07-24 07:26:10,260  INFO Counter:61  vehicles # 8
2021-07-24 07:26:10,260  INFO Counter:61  vehicles # 16
2021-07-24 07:26:10,280  INFO AbstractController:126 ###################################################
2021-07-24 07:26:10,280  INFO AbstractController:127 ### ITERATION 0 BEGINS
2021-07-24 07:26:10,281  INFO ControlerListenerManagerImpl:145 calling notifyIterationStarts on org.matsim.analysis.LegHistogramListener
2021-07-24 07:26:10,281  INFO ControlerListenerManagerImpl:145 calling notifyIterationStarts on org.matsim.analysis.LinkStatsControlerListener
2021-07-24 07:26:10,281  INFO ControlerListenerManagerImpl:145 calling notifyIterationStarts on org.matsim.core.replanning.ReplanningContextImpl
2021-07-24 07:26:10,281  INFO ControlerListenerManagerImpl:145 calling notifyIterationStarts on org.matsim.core.scoring.ExperiencedPlansServiceImpl$1
2021-07-24 07:26:10,281  INFO ControlerListenerManagerImpl:145 calling notifyIterationStarts on org.matsim.core.scoring.ScoringFunctionsForPopulation$1
2021-07-24 07:26:10,286  INFO ControlerListenerManagerImpl:148 [it.0] all ControlerIterationStartsListeners called.
2021-07-24 07:26:10,286  INFO ControlerListenerManagerImpl:224 calling notifyBeforeMobsim on org.matsim.core.controler.corelisteners.EventsHandlingImpl
2021-07-24 07:26:10,286  INFO EventsManagerImpl:170 resetting Event-Handlers
2021-07-24 07:26:10,286  INFO EventsManagerImpl:177   org.matsim.core.trafficmonitoring.TravelTimeCalculator
2021-07-24 07:26:10,286  INFO EventsManagerImpl:177   org.matsim.core.scoring.EventsToLegs
2021-07-24 07:26:10,286  INFO EventsManagerImpl:177   org.matsim.analysis.VolumesAnalyzer
2021-07-24 07:26:10,286  INFO EventsManagerImpl:177   org.matsim.core.scoring.EventsToActivities
2021-07-24 07:26:10,286  INFO EventsManagerImpl:177   org.matsim.analysis.CalcLegTimes
2021-07-24 07:26:10,287  INFO EventsManagerImpl:177   org.matsim.analysis.LegHistogram
2021-07-24 07:26:10,287  INFO EventsManagerImpl:177   org.matsim.core.scoring.ScoringFunctionsForPopulation
2021-07-24 07:26:10,288  INFO EventsManagerImpl:144 adding Event-Handler: org.matsim.core.events.algorithms.EventWriterXML
2021-07-24 07:26:10,289  INFO EventsManagerImpl:148   org.matsim.core.events.algorithms.EventWriter
2021-07-24 07:26:10,289  INFO EventsManagerImpl:148   org.matsim.core.events.handler.BasicEventHandler
2021-07-24 07:26:10,289  INFO EventsManagerImpl:207     > org.matsim.api.core.v01.events.Event
2021-07-24 07:26:10,289  INFO EventsManagerImpl:156 
2021-07-24 07:26:10,289  INFO EventsManagerImpl:144 adding Event-Handler: org.matsim.core.events.algorithms.EventWriterXML
2021-07-24 07:26:10,289  INFO EventsManagerImpl:148   org.matsim.core.events.algorithms.EventWriter
2021-07-24 07:26:10,289  INFO EventsManagerImpl:148   org.matsim.core.events.handler.BasicEventHandler
2021-07-24 07:26:10,289  INFO EventsManagerImpl:207     > org.matsim.api.core.v01.events.Event
2021-07-24 07:26:10,289  INFO EventsManagerImpl:156 
2021-07-24 07:26:10,289  INFO ControlerListenerManagerImpl:224 calling notifyBeforeMobsim on org.matsim.core.controler.corelisteners.PlansDumpingImpl
2021-07-24 07:26:10,289  INFO PlansDumpingImpl:75 dumping plans...
2021-07-24 07:26:10,292  INFO Counter:61 [PopulationWriter] dumped person # 1
2021-07-24 07:26:10,292  INFO Counter:61 [PopulationWriter] dumped person # 2
2021-07-24 07:26:10,292  INFO Counter:61 [PopulationWriter] dumped person # 4
2021-07-24 07:26:10,293  INFO Counter:61 [PopulationWriter] dumped person # 8
2021-07-24 07:26:10,295  INFO Counter:61 [PopulationWriter] dumped person # 16
2021-07-24 07:26:10,296  INFO PopulationWriter:139 Population written to: scenarios\\seattle-formal-all\\justAcase\\MATSim\\0.output/ITERS/it.0/0.plans.xml.gz
2021-07-24 07:26:10,297  INFO Counter:67 [PopulationWriter] dumped person # 30
2021-07-24 07:26:10,297  INFO PlansDumpingImpl:92 finished plans dump.
2021-07-24 07:26:10,297  INFO ControlerListenerManagerImpl:229 calling notifyBeforeMobsim on org.matsim.core.population.VspPlansCleaner
2021-07-24 07:26:10,297  INFO ControlerListenerManagerImpl:232 [it.0] all ControlerBeforeMobsimListeners called.
2021-07-24 07:26:10,336  INFO MobsimListenerManager:49 calling addQueueSimulationListener
2021-07-24 07:26:10,337  INFO MobsimListenerManager:53   assigned class org.matsim.core.mobsim.framework.listeners.MobsimListener to interface org.matsim.core.mobsim.framework.listeners.MobsimBeforeCleanupListener
2021-07-24 07:26:10,337  INFO MobsimListenerManager:53   assigned class org.matsim.core.mobsim.framework.listeners.MobsimListener to interface org.matsim.vis.snapshotwriters.SnapshotWriterManager
2021-07-24 07:26:10,337  INFO MobsimListenerManager:53   assigned class org.matsim.core.mobsim.framework.listeners.MobsimListener to interface org.matsim.core.mobsim.framework.listeners.MobsimInitializedListener
2021-07-24 07:26:10,337  INFO MobsimListenerManager:53   assigned class org.matsim.core.mobsim.framework.listeners.MobsimListener to interface org.matsim.core.mobsim.framework.listeners.MobsimAfterSimStepListener
2021-07-24 07:26:10,337  INFO MobsimListenerManager:53   assigned class org.matsim.core.mobsim.framework.listeners.MobsimListener to interface org.matsim.core.mobsim.framework.listeners.MobsimListener
2021-07-24 07:26:10,382  WARN QueueWithBuffer:377 Link -101843_0 too small: enlarge storage capacity from: 21.978767138187695 Vehicles to: 22.12429583971113 Vehicles.  This is not fatal, but modifies the traffic flow dynamics.
2021-07-24 07:26:10,384  WARN QueueWithBuffer:377 Link -101939_0 too small: enlarge storage capacity from: 26.854181297450015 Vehicles to: 27.031991731953536 Vehicles.  This is not fatal, but modifies the traffic flow dynamics.
2021-07-24 07:26:10,384  WARN QueueWithBuffer:377 Link -101939_0_r too small: enlarge storage capacity from: 26.854181297450015 Vehicles to: 27.031991731953536 Vehicles.  This is not fatal, but modifies the traffic flow dynamics.
2021-07-24 07:26:10,385  WARN QueueWithBuffer:377 Link -102051_0 too small: enlarge storage capacity from: 10.229934204528268 Vehicles to: 10.297669989347085 Vehicles.  This is not fatal, but modifies the traffic flow dynamics.
2021-07-24 07:26:10,386  WARN QueueWithBuffer:377 Link -102053_0 too small: enlarge storage capacity from: 17.31582429078177 Vehicles to: 17.430478102299116 Vehicles.  This is not fatal, but modifies the traffic flow dynamics.
2021-07-24 07:26:10,387  WARN QueueWithBuffer:377 Link -102055_0 too small: enlarge storage capacity from: 12.427134740096651 Vehicles to: 12.509418917867514 Vehicles.  This is not fatal, but modifies the traffic flow dynamics.
2021-07-24 07:26:10,388  WARN QueueWithBuffer:377 Link -102147_1 too small: enlarge storage capacity from: 17.37470745962674 Vehicles to: 17.489751156120334 Vehicles.  This is not fatal, but modifies the traffic flow dynamics.
2021-07-24 07:26:10,389  WARN QueueWithBuffer:377 Link -102147_1_r too small: enlarge storage capacity from: 17.37470745962674 Vehicles to: 17.489751156120334 Vehicles.  This is not fatal, but modifies the traffic flow dynamics.
2021-07-24 07:26:10,389  WARN QueueWithBuffer:377 Link -102149_0 too small: enlarge storage capacity from: 11.070597398075178 Vehicles to: 11.143899492514832 Vehicles.  This is not fatal, but modifies the traffic flow dynamics.
2021-07-24 07:26:10,389  WARN QueueWithBuffer:377 Link -102149_0_r too small: enlarge storage capacity from: 11.070597398075178 Vehicles to: 11.143899492514832 Vehicles.  This is not fatal, but modifies the traffic flow dynamics.
2021-07-24 07:26:10,389  WARN QueueWithBuffer:377 Link -102159_0 too small: enlarge storage capacity from: 2.9787211233193407 Vehicles to: 2.9984442230979407 Vehicles.  This is not fatal, but modifies the traffic flow dynamics.
2021-07-24 07:26:10,390  WARN QueueWithBuffer:380 Additional warnings of this type are suppressed.
2021-07-24 07:26:10,761  INFO Injector:80 === printInjector start ===
2021-07-24 07:26:10,761  INFO Injector:84 org.matsim.core.mobsim.qsim.qnetsimengine.VehicularDepartureHandler 
2021-07-24 07:26:10,761  INFO Injector:85   --> provider: Key[type=org.matsim.core.mobsim.qsim.qnetsimengine.QNetsimEngineDepartureHandlerProvider, annotation=[none]][Scopes.SINGLETON]
2021-07-24 07:26:10,761  INFO Injector:86   --> source: org.matsim.core.mobsim.qsim.qnetsimengine.QNetsimEnginePlugin$1.configure(QNetsimEnginePlugin.java:25)
2021-07-24 07:26:10,761  INFO Injector:88   --> scope: eager singleton
2021-07-24 07:26:10,761  INFO Injector:92 
2021-07-24 07:26:10,762  INFO Injector:84 org.matsim.core.mobsim.qsim.agents.AgentFactory 
2021-07-24 07:26:10,762  INFO Injector:85   --> provider: FactoryProxy{key=Key[type=org.matsim.core.mobsim.qsim.agents.AgentFactory, annotation=[none]], provider=com.google.inject.internal.ConstructorBindingImpl$Factory@2d140a7}[Scopes.SINGLETON]
2021-07-24 07:26:10,762  INFO Injector:86   --> source: org.matsim.core.mobsim.qsim.PopulationPlugin$1.configure(PopulationPlugin.java:30)
2021-07-24 07:26:10,762  INFO Injector:88   --> scope: eager singleton
2021-07-24 07:26:10,762  INFO Injector:92 
2021-07-24 07:26:10,762  INFO Injector:84 org.matsim.core.mobsim.qsim.interfaces.Netsim 
2021-07-24 07:26:10,762  INFO Injector:85   --> provider: FactoryProxy{key=Key[type=org.matsim.core.mobsim.qsim.interfaces.Netsim, annotation=[none]], provider=com.google.inject.internal.ConstructorBindingImpl$Factory@240139e1[Scopes.SINGLETON]}
2021-07-24 07:26:10,762  INFO Injector:86   --> source: org.matsim.core.mobsim.qsim.QSimProvider$1.configure(QSimProvider.java:65)
2021-07-24 07:26:10,762  INFO Injector:88   --> scope: Scopes.NO_SCOPE
2021-07-24 07:26:10,762  INFO Injector:92 
2021-07-24 07:26:10,763  INFO Injector:84 org.matsim.core.mobsim.jdeqsim.MessageQueue 
2021-07-24 07:26:10,763  INFO Injector:85   --> provider: com.google.inject.internal.ConstructorBindingImpl$Factory@55f45b92[Scopes.SINGLETON]
2021-07-24 07:26:10,763  INFO Injector:86   --> source: org.matsim.core.mobsim.qsim.messagequeueengine.MessageQueuePlugin$1.configure(MessageQueuePlugin.java:24)
2021-07-24 07:26:10,763  INFO Injector:88   --> scope: eager singleton
2021-07-24 07:26:10,763  INFO Injector:92 
2021-07-24 07:26:10,763  INFO Injector:84 org.matsim.core.mobsim.qsim.jdeqsimengine.SteppableScheduler 
2021-07-24 07:26:10,763  INFO Injector:85   --> provider: com.google.inject.internal.ConstructorBindingImpl$Factory@415e0bcb[Scopes.SINGLETON]
2021-07-24 07:26:10,764  INFO Injector:86   --> source: org.matsim.core.mobsim.qsim.messagequeueengine.MessageQueuePlugin$1.configure(MessageQueuePlugin.java:25)
2021-07-24 07:26:10,764  INFO Injector:88   --> scope: eager singleton
2021-07-24 07:26:10,764  INFO Injector:92 
2021-07-24 07:26:10,764  INFO Injector:84 org.matsim.core.mobsim.qsim.messagequeueengine.MessageQueueEngine 
2021-07-24 07:26:10,764  INFO Injector:85   --> provider: com.google.inject.internal.ConstructorBindingImpl$Factory@bf71cec[Scopes.SINGLETON]
2021-07-24 07:26:10,764  INFO Injector:86   --> source: org.matsim.core.mobsim.qsim.messagequeueengine.MessageQueuePlugin$1.configure(MessageQueuePlugin.java:26)
2021-07-24 07:26:10,764  INFO Injector:88   --> scope: eager singleton
2021-07-24 07:26:10,764  INFO Injector:92 
2021-07-24 07:26:10,764  INFO Injector:84 org.matsim.core.mobsim.qsim.ActivityEngine 
2021-07-24 07:26:10,765  INFO Injector:85   --> provider: com.google.inject.internal.ConstructorBindingImpl$Factory@6c000e0c[Scopes.SINGLETON]
2021-07-24 07:26:10,765  INFO Injector:86   --> source: org.matsim.core.mobsim.qsim.ActivityEnginePlugin$1.configure(ActivityEnginePlugin.java:23)
2021-07-24 07:26:10,765  INFO Injector:88   --> scope: eager singleton
2021-07-24 07:26:10,765  INFO Injector:92 
2021-07-24 07:26:10,765  INFO Injector:84 org.matsim.core.mobsim.qsim.qnetsimengine.QNetsimEngine 
2021-07-24 07:26:10,765  INFO Injector:85   --> provider: com.google.inject.internal.ConstructorBindingImpl$Factory@4c9e9fb8[Scopes.SINGLETON]
2021-07-24 07:26:10,765  INFO Injector:86   --> source: org.matsim.core.mobsim.qsim.qnetsimengine.QNetsimEnginePlugin$1.configure(QNetsimEnginePlugin.java:24)
2021-07-24 07:26:10,765  INFO Injector:88   --> scope: eager singleton
2021-07-24 07:26:10,765  INFO Injector:92 
2021-07-24 07:26:10,765  INFO Injector:84 org.matsim.core.mobsim.qsim.DefaultTeleportationEngine 
2021-07-24 07:26:10,766  INFO Injector:85   --> provider: com.google.inject.internal.ConstructorBindingImpl$Factory@c7a977f[Scopes.SINGLETON]
2021-07-24 07:26:10,766  INFO Injector:86   --> source: org.matsim.core.mobsim.qsim.TeleportationPlugin$1.configure(TeleportationPlugin.java:21)
2021-07-24 07:26:10,766  INFO Injector:88   --> scope: eager singleton
2021-07-24 07:26:10,766  INFO Injector:92 
2021-07-24 07:26:10,766  INFO Injector:84 org.matsim.core.mobsim.qsim.agents.PopulationAgentSource 
2021-07-24 07:26:10,766  INFO Injector:85   --> provider: com.google.inject.internal.ConstructorBindingImpl$Factory@2fa3be26[Scopes.SINGLETON]
2021-07-24 07:26:10,766  INFO Injector:86   --> source: org.matsim.core.mobsim.qsim.PopulationPlugin$1.configure(PopulationPlugin.java:26)
2021-07-24 07:26:10,766  INFO Injector:88   --> scope: eager singleton
2021-07-24 07:26:10,766  INFO Injector:92 
2021-07-24 07:26:10,767  INFO Injector:84 org.matsim.core.mobsim.qsim.QSim 
2021-07-24 07:26:10,767  INFO Injector:85   --> provider: com.google.inject.internal.ConstructorBindingImpl$Factory@240139e1[Scopes.SINGLETON]
2021-07-24 07:26:10,767  INFO Injector:86   --> source: org.matsim.core.mobsim.qsim.QSimProvider$1.configure(QSimProvider.java:64)
2021-07-24 07:26:10,767  INFO Injector:88   --> scope: eager singleton
2021-07-24 07:26:10,767  INFO Injector:92 
2021-07-24 07:26:10,767  INFO Injector:95 === printInjector end ===
2021-07-24 07:26:10,767  INFO MobsimListenerManager:49 calling addQueueSimulationListener
2021-07-24 07:26:10,767  INFO MobsimListenerManager:53   assigned class org.matsim.core.mobsim.framework.listeners.MobsimListener to interface org.matsim.core.mobsim.framework.listeners.MobsimBeforeSimStepListener
2021-07-24 07:26:10,767  INFO MobsimListenerManager:53   assigned class org.matsim.core.mobsim.framework.listeners.MobsimListener to interface org.matsim.core.mobsim.qsim.messagequeueengine.MessageQueueEngine
2021-07-24 07:26:10,768  INFO MobsimListenerManager:53   assigned class org.matsim.core.mobsim.framework.listeners.MobsimListener to interface org.matsim.core.mobsim.framework.listeners.MobsimListener
2021-07-24 07:26:10,872  INFO QNetsimEngine:504 Assigned 107253 nodes and 223850 links to QSimEngineRunner #0
2021-07-24 07:26:10,874  INFO EventsManagerImpl:134  event # 1
2021-07-24 07:26:10,876  INFO EventsManagerImpl:134  event # 4
2021-07-24 07:26:10,876  INFO QNetsimEngine:347 SIMULATION (QNetsimEngine) AT 07:00:00 : #links=0 #nodes=1
2021-07-24 07:26:10,876  INFO QSim:506 SIMULATION (NEW QSim) AT 07:00:00 : #Veh=30 lost=0 simT=0.0s realT=0s; (s/r): 0.0
2021-07-24 07:26:10,876  INFO Gbl:54 used RAM: 846788816B = 826942kB = 807MB  free: 355403568B = 338MB  total: 1202192384B = 1146MB
2021-07-24 07:26:10,877  WARN DefaultTurnAcceptanceLogic:36 Cannot move vehicle 0 from link -104717_4_r to link -163759_3
2021-07-24 07:26:10,878  WARN DefaultTurnAcceptanceLogic:36 Cannot move vehicle 1 from link -160751_3_r to link -161653_5_r
2021-07-24 07:26:10,878  INFO EventsManagerImpl:134  event # 16
2021-07-24 07:26:10,878  WARN DefaultTurnAcceptanceLogic:36 Cannot move vehicle 2 from link -157221_0_r to link -155631_11_r
2021-07-24 07:26:10,879  WARN DefaultTurnAcceptanceLogic:36 Cannot move vehicle 3 from link -111005_0 to link -117037_0
2021-07-24 07:26:10,880  WARN DefaultTurnAcceptanceLogic:36 Cannot move vehicle 4 from link -167469_9_r to link -159441_1_r
2021-07-24 07:26:10,880  WARN DefaultTurnAcceptanceLogic:36 Cannot move vehicle 5 from link -126425_0 to link -167897_5
2021-07-24 07:26:10,880  WARN DefaultTurnAcceptanceLogic:36 Cannot move vehicle 6 from link -102565_0 to link -159781_3_r
2021-07-24 07:26:10,881  WARN DefaultTurnAcceptanceLogic:36 Cannot move vehicle 7 from link -161787_7_r to link -160145_0
2021-07-24 07:26:10,881  WARN DefaultTurnAcceptanceLogic:36 Cannot move vehicle 8 from link -134957_3_r to link -115533_0_r
2021-07-24 07:26:10,882  WARN DefaultTurnAcceptanceLogic:36 Cannot move vehicle 9 from link -139339_0 to link -169081_5_r
2021-07-24 07:26:10,882  INFO EventsManagerImpl:134  event # 64
2021-07-24 07:26:10,882  WARN DefaultTurnAcceptanceLogic:36 Cannot move vehicle 10 from link -130607_7 to link -159825_8
2021-07-24 07:26:10,882  WARN DefaultTurnAcceptanceLogic:36 Cannot move vehicle 11 from link -166817_3_r to link -117801_8
2021-07-24 07:26:10,883  WARN DefaultTurnAcceptanceLogic:36 Cannot move vehicle 12 from link -169121_27_r to link -129655_0
2021-07-24 07:26:10,883  WARN DefaultTurnAcceptanceLogic:36 Cannot move vehicle 13 from link -142825_0_r to link -151671_0
2021-07-24 07:26:10,883  WARN DefaultTurnAcceptanceLogic:36 Cannot move vehicle 14 from link -158803_0_r to link -114467_7
2021-07-24 07:26:10,884  WARN DefaultTurnAcceptanceLogic:36 Cannot move vehicle 15 from link -124919_0 to link -135983_0
2021-07-24 07:26:10,884  WARN DefaultTurnAcceptanceLogic:36 Cannot move vehicle 16 from link -169697_0 to link -164921_4_r
2021-07-24 07:26:10,885  WARN DefaultTurnAcceptanceLogic:36 Cannot move vehicle 17 from link -146345_0_r to link -161353_1
2021-07-24 07:26:10,885  WARN DefaultTurnAcceptanceLogic:36 Cannot move vehicle 18 from link -158353_4 to link -156637_0_r
2021-07-24 07:26:10,885  WARN DefaultTurnAcceptanceLogic:36 Cannot move vehicle 19 from link -142249_2 to link -128415_7
2021-07-24 07:26:10,886  WARN DefaultTurnAcceptanceLogic:36 Cannot move vehicle 20 from link -158131_5 to link -158549_4
2021-07-24 07:26:10,886  WARN DefaultTurnAcceptanceLogic:36 Cannot move vehicle 21 from link -131685_0_r to link -110835_1_r
2021-07-24 07:26:10,886  WARN DefaultTurnAcceptanceLogic:36 Cannot move vehicle 22 from link -118303_2 to link -134423_4
2021-07-24 07:26:10,887  WARN DefaultTurnAcceptanceLogic:36 Cannot move vehicle 23 from link -167261_3 to link -162149_0
2021-07-24 07:26:10,887  WARN DefaultTurnAcceptanceLogic:36 Cannot move vehicle 24 from link -165599_7 to link -108489_2
2021-07-24 07:26:10,887  WARN DefaultTurnAcceptanceLogic:36 Cannot move vehicle 25 from link -149637_0_r to link -169099_19_r
2021-07-24 07:26:10,888  WARN DefaultTurnAcceptanceLogic:36 Cannot move vehicle 26 from link -157711_3 to link -163735_0
2021-07-24 07:26:10,889  WARN DefaultTurnAcceptanceLogic:36 Cannot move vehicle 27 from link -156707_4 to link -117471_0
2021-07-24 07:26:10,889  WARN DefaultTurnAcceptanceLogic:36 Cannot move vehicle 28 from link -142637_15 to link -165359_0_r
2021-07-24 07:26:10,889  WARN DefaultTurnAcceptanceLogic:36 Cannot move vehicle 29 from link -166023_0 to link -153967_29_r
2021-07-24 07:26:10,934  INFO Gbl:187 Thread performance: Thread=class org.matsim.core.events.SimStepParallelEventsManagerImpl$ProcessEventsRunnable0  cpu-time=0.015625sec
2021-07-24 07:26:10,935  INFO AbstractController$8:215 ### ITERATION 0 fires after mobsim event
2021-07-24 07:26:10,935  INFO ControlerListenerManagerImpl:248 calling notifyAfterMobsim on org.matsim.analysis.LegTimesControlerListener
2021-07-24 07:26:10,935  INFO LegTimesControlerListener:50 [0] average trip (probably: leg) duration is: 0 seconds = 00:00:00
2021-07-24 07:26:10,936  INFO ControlerListenerManagerImpl:248 calling notifyAfterMobsim on org.matsim.core.scoring.EventsToActivities$1
2021-07-24 07:26:10,936  INFO ControlerListenerManagerImpl:251 [it.0] all ControlerAfterMobsimListeners called.
2021-07-24 07:26:10,936  INFO AbstractController$4:152 ### ITERATION 0 fires scoring event
2021-07-24 07:26:10,936  INFO ControlerListenerManagerImpl:183 calling notifyScoring on org.matsim.core.scoring.PlansScoringImpl
2021-07-24 07:26:10,937  INFO NewScoreAssignerImpl:36 it: 0 msaStart: null
2021-07-24 07:26:10,937  INFO ControlerListenerManagerImpl:194 [it.0] all ControlerScoringListeners called.
2021-07-24 07:26:10,938  INFO AbstractController$5:160 ### ITERATION 0 fires iteration end event
2021-07-24 07:26:10,938  INFO ControlerListenerManagerImpl:160 calling notifyIterationEnds on org.matsim.core.controler.corelisteners.EventsHandlingImpl
2021-07-24 07:26:10,999  INFO EventsManagerImpl:161 removing Event-Handler: org.matsim.core.events.algorithms.EventWriterXML
2021-07-24 07:26:11,000  INFO EventsManagerImpl:161 removing Event-Handler: org.matsim.core.events.algorithms.EventWriterXML
2021-07-24 07:26:11,000  INFO ControlerListenerManagerImpl:160 calling notifyIterationEnds on org.matsim.core.scoring.PlansScoringImpl
2021-07-24 07:26:11,001  INFO ControlerListenerManagerImpl:167 calling notifyIterationEnds on org.matsim.counts.CountsControlerListener
2021-07-24 07:26:11,001  INFO ControlerListenerManagerImpl:167 calling notifyIterationEnds on org.matsim.analysis.ModeStatsControlerListener
2021-07-24 07:26:11,008  INFO ModeStatsControlerListener:155 -- mode share of mode bike = 0.0
2021-07-24 07:26:11,009  INFO ModeStatsControlerListener:155 -- mode share of mode car = 1.0
2021-07-24 07:26:11,009  INFO ModeStatsControlerListener:155 -- mode share of mode other = 0.0
2021-07-24 07:26:11,009  INFO ModeStatsControlerListener:155 -- mode share of mode pt = 0.0
2021-07-24 07:26:11,010  INFO ModeStatsControlerListener:155 -- mode share of mode ride = 0.0
2021-07-24 07:26:11,010  INFO ModeStatsControlerListener:155 -- mode share of mode walk = 0.0
2021-07-24 07:26:11,011  INFO ControlerListenerManagerImpl:167 calling notifyIterationEnds on org.matsim.analysis.ScoreStatsControlerListener
2021-07-24 07:26:11,011  INFO ScoreStatsControlerListener:191 -- avg. score of the executed plan of each agent: -398.73941072024155
2021-07-24 07:26:11,012  INFO ScoreStatsControlerListener:192 -- avg. score of the worst plan of each agent: -398.73941072024155
2021-07-24 07:26:11,012  INFO ScoreStatsControlerListener:193 -- avg. of the avg. plan score per agent: -398.73941072024155
2021-07-24 07:26:11,013  INFO ScoreStatsControlerListener:194 -- avg. score of the best plan of each agent: -398.73941072024155
2021-07-24 07:26:11,014  INFO ControlerListenerManagerImpl:167 calling notifyIterationEnds on org.matsim.analysis.TravelDistanceStatsControlerListener
2021-07-24 07:26:11,015  INFO TravelDistanceStats:128 [TravelDistanceStats] using 1 thread(s).
2021-07-24 07:26:11,016  INFO TravelDistanceStats:141 [TravelDistanceStats] all threads finished.
2021-07-24 07:26:11,017  INFO TravelDistanceStats:161 -- average of the average leg distance per plan (executed plans only): 0.0
2021-07-24 07:26:11,017  INFO TravelDistanceStats:162 (TravelDistanceStats takes an average over all legs where the simulation reports travelled distances. These are car legs, pt legs,
2021-07-24 07:26:11,017  INFO TravelDistanceStats:163 (and teleported legs whose route contains a distance.)
2021-07-24 07:26:11,017  INFO ControlerListenerManagerImpl:167 calling notifyIterationEnds on org.matsim.analysis.LegHistogramListener
2021-07-24 07:26:11,030  INFO LegHistogramListener:72 number of legs:	30	100%
2021-07-24 07:26:11,031  INFO LegHistogramListener:79 number of car legs:	30	100.0%
2021-07-24 07:26:11,861  INFO ControlerListenerManagerImpl:167 calling notifyIterationEnds on org.matsim.analysis.LinkStatsControlerListener
2021-07-24 07:26:11,862  INFO ControlerListenerManagerImpl:171 [it.0] all ControlerIterationEndsListeners called.
2021-07-24 07:26:11,992  INFO AbstractController:170 ### ITERATION 0 ENDS
2021-07-24 07:26:11,992  INFO AbstractController:171 ###################################################
2021-07-24 07:26:11,992  INFO AbstractController:126 ###################################################
2021-07-24 07:26:11,992  INFO AbstractController:127 ### ITERATION 1 BEGINS
2021-07-24 07:26:11,993  INFO ControlerListenerManagerImpl:145 calling notifyIterationStarts on org.matsim.analysis.LegHistogramListener
2021-07-24 07:26:11,993  INFO ControlerListenerManagerImpl:145 calling notifyIterationStarts on org.matsim.analysis.LinkStatsControlerListener
2021-07-24 07:26:11,993  INFO ControlerListenerManagerImpl:145 calling notifyIterationStarts on org.matsim.core.replanning.ReplanningContextImpl
2021-07-24 07:26:11,993  INFO ControlerListenerManagerImpl:145 calling notifyIterationStarts on org.matsim.core.scoring.ExperiencedPlansServiceImpl$1
2021-07-24 07:26:11,993  INFO ControlerListenerManagerImpl:145 calling notifyIterationStarts on org.matsim.core.scoring.ScoringFunctionsForPopulation$1
2021-07-24 07:26:11,993  INFO ControlerListenerManagerImpl:148 [it.1] all ControlerIterationStartsListeners called.
2021-07-24 07:26:11,994  INFO ControlerListenerManagerImpl:205 calling notifyReplanning on org.matsim.core.controler.corelisteners.PlansReplanningImpl
2021-07-24 07:26:11,994 DEBUG NetworkRoutingProvider:75 requesting network routing module with routingMode=car;	mode=car
2021-07-24 07:26:11,996  INFO GenericPlanStrategyImpl:125 Plan-Strategy finished, 23 plans handled. Strategy: BestPlanSelector
2021-07-24 07:26:11,996  INFO AbstractMultithreadedModule:141 [PlanRouter] starting 1 threads, handling 7 plans
2021-07-24 07:26:12,414  INFO Counter:61 [PlanRouter] handled plan # 1
2021-07-24 07:26:12,655  INFO Counter:61 [PlanRouter] handled plan # 2
2021-07-24 07:26:13,884  INFO Counter:61 [PlanRouter] handled plan # 4
2021-07-24 07:26:14,420  INFO AbstractMultithreadedModule:156 [PlanRouter] all 1 threads finished.
2021-07-24 07:26:14,420  INFO GenericPlanStrategyImpl:125 Plan-Strategy finished, 7 plans handled. Strategy: RandomPlanSelector_ReRoute
2021-07-24 07:26:14,420  INFO ControlerListenerManagerImpl:213 [it.1] all ControlerReplanningListeners called.
2021-07-24 07:26:14,420  INFO ControlerListenerManagerImpl:224 calling notifyBeforeMobsim on org.matsim.core.controler.corelisteners.EventsHandlingImpl
2021-07-24 07:26:14,420  INFO EventsManagerImpl:170 resetting Event-Handlers
2021-07-24 07:26:14,420  INFO EventsManagerImpl:177   org.matsim.core.trafficmonitoring.TravelTimeCalculator
2021-07-24 07:26:14,485  INFO EventsManagerImpl:177   org.matsim.core.scoring.EventsToLegs
2021-07-24 07:26:14,485  INFO EventsManagerImpl:177   org.matsim.analysis.VolumesAnalyzer
2021-07-24 07:26:14,485  INFO EventsManagerImpl:177   org.matsim.core.scoring.EventsToActivities
2021-07-24 07:26:14,485  INFO EventsManagerImpl:177   org.matsim.analysis.CalcLegTimes
2021-07-24 07:26:14,485  INFO EventsManagerImpl:177   org.matsim.analysis.LegHistogram
2021-07-24 07:26:14,485  INFO EventsManagerImpl:177   org.matsim.core.scoring.ScoringFunctionsForPopulation
2021-07-24 07:26:14,485  INFO ControlerListenerManagerImpl:224 calling notifyBeforeMobsim on org.matsim.core.controler.corelisteners.PlansDumpingImpl
2021-07-24 07:26:14,485  INFO PlansDumpingImpl:75 dumping plans...
[...]
2021-07-24 07:29:09,775  INFO EventsManagerImpl:156 
2021-07-24 07:29:09,775  INFO EventsManagerImpl:144 adding Event-Handler: org.matsim.core.events.algorithms.EventWriterXML
2021-07-24 07:29:09,775  INFO EventsManagerImpl:148   org.matsim.core.events.algorithms.EventWriter
2021-07-24 07:29:09,775  INFO EventsManagerImpl:148   org.matsim.core.events.handler.BasicEventHandler
2021-07-24 07:29:09,775  INFO EventsManagerImpl:207     > org.matsim.api.core.v01.events.Event
2021-07-24 07:29:09,775  INFO EventsManagerImpl:156 
2021-07-24 07:29:09,775  INFO ControlerListenerManagerImpl:224 calling notifyBeforeMobsim on org.matsim.core.controler.corelisteners.PlansDumpingImpl
2021-07-24 07:29:09,775  INFO PlansDumpingImpl:75 dumping plans...
2021-07-24 07:29:09,777  INFO Counter:61 [PopulationWriter] dumped person # 1
2021-07-24 07:29:09,778  INFO Counter:61 [PopulationWriter] dumped person # 2
2021-07-24 07:29:09,781  INFO Counter:61 [PopulationWriter] dumped person # 4
2021-07-24 07:29:09,792  INFO Counter:61 [PopulationWriter] dumped person # 8
2021-07-24 07:29:09,798  INFO Counter:61 [PopulationWriter] dumped person # 16
2021-07-24 07:29:09,810  INFO PopulationWriter:139 Population written to: scenarios\\seattle-formal-all\\justAcase\\MATSim\\0.output/ITERS/it.50/50.plans.xml.gz
2021-07-24 07:29:09,811  INFO Counter:67 [PopulationWriter] dumped person # 30
2021-07-24 07:29:09,811  INFO PlansDumpingImpl:92 finished plans dump.
2021-07-24 07:29:09,811  INFO ControlerListenerManagerImpl:229 calling notifyBeforeMobsim on org.matsim.core.population.VspPlansCleaner
2021-07-24 07:29:09,811  INFO ControlerListenerManagerImpl:232 [it.50] all ControlerBeforeMobsimListeners called.
2021-07-24 07:29:09,814  INFO MobsimListenerManager:49 calling addQueueSimulationListener
2021-07-24 07:29:09,814  INFO MobsimListenerManager:53   assigned class org.matsim.core.mobsim.framework.listeners.MobsimListener to interface org.matsim.core.mobsim.framework.listeners.MobsimBeforeCleanupListener
2021-07-24 07:29:09,814  INFO MobsimListenerManager:53   assigned class org.matsim.core.mobsim.framework.listeners.MobsimListener to interface org.matsim.vis.snapshotwriters.SnapshotWriterManager
2021-07-24 07:29:09,814  INFO MobsimListenerManager:53   assigned class org.matsim.core.mobsim.framework.listeners.MobsimListener to interface org.matsim.core.mobsim.framework.listeners.MobsimInitializedListener
2021-07-24 07:29:09,814  INFO MobsimListenerManager:53   assigned class org.matsim.core.mobsim.framework.listeners.MobsimListener to interface org.matsim.core.mobsim.framework.listeners.MobsimAfterSimStepListener
2021-07-24 07:29:09,814  INFO MobsimListenerManager:53   assigned class org.matsim.core.mobsim.framework.listeners.MobsimListener to interface org.matsim.core.mobsim.framework.listeners.MobsimListener
2021-07-24 07:29:10,452  INFO Injector:80 === printInjector start ===
2021-07-24 07:29:10,452  INFO Injector:84 org.matsim.core.mobsim.qsim.qnetsimengine.VehicularDepartureHandler 
2021-07-24 07:29:10,452  INFO Injector:85   --> provider: Key[type=org.matsim.core.mobsim.qsim.qnetsimengine.QNetsimEngineDepartureHandlerProvider, annotation=[none]][Scopes.SINGLETON]
2021-07-24 07:29:10,452  INFO Injector:86   --> source: org.matsim.core.mobsim.qsim.qnetsimengine.QNetsimEnginePlugin$1.configure(QNetsimEnginePlugin.java:25)
2021-07-24 07:29:10,452  INFO Injector:88   --> scope: eager singleton
2021-07-24 07:29:10,453  INFO Injector:92 
2021-07-24 07:29:10,453  INFO Injector:84 org.matsim.core.mobsim.qsim.agents.AgentFactory 
2021-07-24 07:29:10,453  INFO Injector:85   --> provider: FactoryProxy{key=Key[type=org.matsim.core.mobsim.qsim.agents.AgentFactory, annotation=[none]], provider=com.google.inject.internal.ConstructorBindingImpl$Factory@701b7e43}[Scopes.SINGLETON]
2021-07-24 07:29:10,453  INFO Injector:86   --> source: org.matsim.core.mobsim.qsim.PopulationPlugin$1.configure(PopulationPlugin.java:30)
2021-07-24 07:29:10,453  INFO Injector:88   --> scope: eager singleton
2021-07-24 07:29:10,453  INFO Injector:92 
2021-07-24 07:29:10,453  INFO Injector:84 org.matsim.core.mobsim.qsim.interfaces.Netsim 
2021-07-24 07:29:10,453  INFO Injector:85   --> provider: FactoryProxy{key=Key[type=org.matsim.core.mobsim.qsim.interfaces.Netsim, annotation=[none]], provider=com.google.inject.internal.ConstructorBindingImpl$Factory@49911092[Scopes.SINGLETON]}
2021-07-24 07:29:10,453  INFO Injector:86   --> source: org.matsim.core.mobsim.qsim.QSimProvider$1.configure(QSimProvider.java:65)
2021-07-24 07:29:10,453  INFO Injector:88   --> scope: Scopes.NO_SCOPE
2021-07-24 07:29:10,453  INFO Injector:92 
2021-07-24 07:29:10,453  INFO Injector:84 org.matsim.core.mobsim.jdeqsim.MessageQueue 
2021-07-24 07:29:10,454  INFO Injector:85   --> provider: com.google.inject.internal.ConstructorBindingImpl$Factory@40e024ca[Scopes.SINGLETON]
2021-07-24 07:29:10,454  INFO Injector:86   --> source: org.matsim.core.mobsim.qsim.messagequeueengine.MessageQueuePlugin$1.configure(MessageQueuePlugin.java:24)
2021-07-24 07:29:10,454  INFO Injector:88   --> scope: eager singleton
2021-07-24 07:29:10,454  INFO Injector:92 
2021-07-24 07:29:10,454  INFO Injector:84 org.matsim.core.mobsim.qsim.jdeqsimengine.SteppableScheduler 
2021-07-24 07:29:10,454  INFO Injector:85   --> provider: com.google.inject.internal.ConstructorBindingImpl$Factory@1bda9b30[Scopes.SINGLETON]
2021-07-24 07:29:10,454  INFO Injector:86   --> source: org.matsim.core.mobsim.qsim.messagequeueengine.MessageQueuePlugin$1.configure(MessageQueuePlugin.java:25)
2021-07-24 07:29:10,454  INFO Injector:88   --> scope: eager singleton
2021-07-24 07:29:10,454  INFO Injector:92 
2021-07-24 07:29:10,454  INFO Injector:84 org.matsim.core.mobsim.qsim.messagequeueengine.MessageQueueEngine 
2021-07-24 07:29:10,455  INFO Injector:85   --> provider: com.google.inject.internal.ConstructorBindingImpl$Factory@2a961e6b[Scopes.SINGLETON]
2021-07-24 07:29:10,455  INFO Injector:86   --> source: org.matsim.core.mobsim.qsim.messagequeueengine.MessageQueuePlugin$1.configure(MessageQueuePlugin.java:26)
2021-07-24 07:29:10,455  INFO Injector:88   --> scope: eager singleton
2021-07-24 07:29:10,455  INFO Injector:92 
2021-07-24 07:29:10,455  INFO Injector:84 org.matsim.core.mobsim.qsim.ActivityEngine 
2021-07-24 07:29:10,455  INFO Injector:85   --> provider: com.google.inject.internal.ConstructorBindingImpl$Factory@191a03d6[Scopes.SINGLETON]
2021-07-24 07:29:10,455  INFO Injector:86   --> source: org.matsim.core.mobsim.qsim.ActivityEnginePlugin$1.configure(ActivityEnginePlugin.java:23)
2021-07-24 07:29:10,455  INFO Injector:88   --> scope: eager singleton
2021-07-24 07:29:10,455  INFO Injector:92 
2021-07-24 07:29:10,455  INFO Injector:84 org.matsim.core.mobsim.qsim.qnetsimengine.QNetsimEngine 
2021-07-24 07:29:10,455  INFO Injector:85   --> provider: com.google.inject.internal.ConstructorBindingImpl$Factory@73870dbd[Scopes.SINGLETON]
2021-07-24 07:29:10,455  INFO Injector:86   --> source: org.matsim.core.mobsim.qsim.qnetsimengine.QNetsimEnginePlugin$1.configure(QNetsimEnginePlugin.java:24)
2021-07-24 07:29:10,455  INFO Injector:88   --> scope: eager singleton
2021-07-24 07:29:10,455  INFO Injector:92 
2021-07-24 07:29:10,455  INFO Injector:84 org.matsim.core.mobsim.qsim.DefaultTeleportationEngine 
2021-07-24 07:29:10,455  INFO Injector:85   --> provider: com.google.inject.internal.ConstructorBindingImpl$Factory@7131e7a9[Scopes.SINGLETON]
2021-07-24 07:29:10,456  INFO Injector:86   --> source: org.matsim.core.mobsim.qsim.TeleportationPlugin$1.configure(TeleportationPlugin.java:21)
2021-07-24 07:29:10,456  INFO Injector:88   --> scope: eager singleton
2021-07-24 07:29:10,456  INFO Injector:92 
2021-07-24 07:29:10,456  INFO Injector:84 org.matsim.core.mobsim.qsim.agents.PopulationAgentSource 
2021-07-24 07:29:10,456  INFO Injector:85   --> provider: com.google.inject.internal.ConstructorBindingImpl$Factory@472670a7[Scopes.SINGLETON]
2021-07-24 07:29:10,456  INFO Injector:86   --> source: org.matsim.core.mobsim.qsim.PopulationPlugin$1.configure(PopulationPlugin.java:26)
2021-07-24 07:29:10,456  INFO Injector:88   --> scope: eager singleton
2021-07-24 07:29:10,456  INFO Injector:92 
2021-07-24 07:29:10,456  INFO Injector:84 org.matsim.core.mobsim.qsim.QSim 
2021-07-24 07:29:10,456  INFO Injector:85   --> provider: com.google.inject.internal.ConstructorBindingImpl$Factory@49911092[Scopes.SINGLETON]
2021-07-24 07:29:10,456  INFO Injector:86   --> source: org.matsim.core.mobsim.qsim.QSimProvider$1.configure(QSimProvider.java:64)
2021-07-24 07:29:10,456  INFO Injector:88   --> scope: eager singleton
2021-07-24 07:29:10,456  INFO Injector:92 
2021-07-24 07:29:10,456  INFO Injector:95 === printInjector end ===
2021-07-24 07:29:10,456  INFO MobsimListenerManager:49 calling addQueueSimulationListener
2021-07-24 07:29:10,457  INFO MobsimListenerManager:53   assigned class org.matsim.core.mobsim.framework.listeners.MobsimListener to interface org.matsim.core.mobsim.framework.listeners.MobsimBeforeSimStepListener
2021-07-24 07:29:10,457  INFO MobsimListenerManager:53   assigned class org.matsim.core.mobsim.framework.listeners.MobsimListener to interface org.matsim.core.mobsim.qsim.messagequeueengine.MessageQueueEngine
2021-07-24 07:29:10,457  INFO MobsimListenerManager:53   assigned class org.matsim.core.mobsim.framework.listeners.MobsimListener to interface org.matsim.core.mobsim.framework.listeners.MobsimListener
2021-07-24 07:29:10,532  INFO QNetsimEngine:504 Assigned 107253 nodes and 223850 links to QSimEngineRunner #0
2021-07-24 07:29:10,532  INFO QNetsimEngine:347 SIMULATION (QNetsimEngine) AT 07:00:00 : #links=0 #nodes=1
2021-07-24 07:29:10,532  INFO QSim:506 SIMULATION (NEW QSim) AT 07:00:00 : #Veh=30 lost=0 simT=0.0s realT=0s; (s/r): 0.0
2021-07-24 07:29:10,533  INFO Gbl:54 used RAM: 1377153752B = 1344876kB = 1313MB  free: 531778856B = 507MB  total: 1908932608B = 1820MB
2021-07-24 07:29:11,366  INFO QNetsimEngine:347 SIMULATION (QNetsimEngine) AT 08:00:00 : #links=13 #nodes=2
2021-07-24 07:29:11,366  INFO QSim:506 SIMULATION (NEW QSim) AT 08:00:00 : #Veh=30 lost=0 simT=3600.0s realT=1s; (s/r): 3600.0
2021-07-24 07:29:11,366  INFO Gbl:54 used RAM: 1393524632B = 1360863kB = 1328MB  free: 515407976B = 491MB  total: 1908932608B = 1820MB
2021-07-24 07:29:11,551  INFO QNetsimEngine:347 SIMULATION (QNetsimEngine) AT 09:00:00 : #links=0 #nodes=1
2021-07-24 07:29:11,551  INFO QSim:506 SIMULATION (NEW QSim) AT 09:00:00 : #Veh=30 lost=0 simT=7200.0s realT=1s; (s/r): 7200.0
2021-07-24 07:29:11,551  INFO Gbl:54 used RAM: 1393524632B = 1360863kB = 1328MB  free: 515407976B = 491MB  total: 1908932608B = 1820MB
2021-07-24 07:29:11,733  INFO QNetsimEngine:347 SIMULATION (QNetsimEngine) AT 10:00:00 : #links=0 #nodes=0
2021-07-24 07:29:11,733  INFO QSim:506 SIMULATION (NEW QSim) AT 10:00:00 : #Veh=30 lost=0 simT=10800.0s realT=1s; (s/r): 10800.0
2021-07-24 07:29:11,733  INFO Gbl:54 used RAM: 1395910168B = 1363193kB = 1331MB  free: 513022440B = 489MB  total: 1908932608B = 1820MB
2021-07-24 07:29:11,869  INFO QNetsimEngine:347 SIMULATION (QNetsimEngine) AT 11:00:00 : #links=0 #nodes=1
2021-07-24 07:29:11,869  INFO QSim:506 SIMULATION (NEW QSim) AT 11:00:00 : #Veh=30 lost=0 simT=14400.0s realT=2s; (s/r): 7200.0
2021-07-24 07:29:11,869  INFO Gbl:54 used RAM: 1400353328B = 1367532kB = 1335MB  free: 508579280B = 485MB  total: 1908932608B = 1820MB
2021-07-24 07:29:12,054  INFO QNetsimEngine:347 SIMULATION (QNetsimEngine) AT 12:00:00 : #links=11 #nodes=4
2021-07-24 07:29:12,054  INFO QSim:506 SIMULATION (NEW QSim) AT 12:00:00 : #Veh=14 lost=0 simT=18000.0s realT=2s; (s/r): 9000.0
2021-07-24 07:29:12,054  INFO Gbl:54 used RAM: 1409895520B = 1376851kB = 1344MB  free: 499037088B = 475MB  total: 1908932608B = 1820MB
2021-07-24 07:29:12,226  INFO Gbl:187 Thread performance: Thread=class org.matsim.core.events.SimStepParallelEventsManagerImpl$ProcessEventsRunnable0  cpu-time=0.453125sec
2021-07-24 07:29:12,226  INFO AbstractController$8:215 ### ITERATION 50 fires after mobsim event
2021-07-24 07:29:12,226  INFO ControlerListenerManagerImpl:248 calling notifyAfterMobsim on org.matsim.analysis.LegTimesControlerListener
2021-07-24 07:29:12,226  INFO LegTimesControlerListener:50 [50] average trip (probably: leg) duration is: 3483 seconds = 00:58:03
2021-07-24 07:29:12,226  INFO ControlerListenerManagerImpl:248 calling notifyAfterMobsim on org.matsim.core.scoring.EventsToActivities$1
2021-07-24 07:29:12,226  INFO ControlerListenerManagerImpl:251 [it.50] all ControlerAfterMobsimListeners called.
2021-07-24 07:29:12,226  INFO AbstractController$4:152 ### ITERATION 50 fires scoring event
2021-07-24 07:29:12,226  INFO ControlerListenerManagerImpl:183 calling notifyScoring on org.matsim.core.scoring.PlansScoringImpl
2021-07-24 07:29:12,227  INFO NewScoreAssignerImpl:36 it: 50 msaStart: null
2021-07-24 07:29:12,227  INFO ControlerListenerManagerImpl:194 [it.50] all ControlerScoringListeners called.
2021-07-24 07:29:12,227  INFO AbstractController$5:160 ### ITERATION 50 fires iteration end event
2021-07-24 07:29:12,227  INFO ControlerListenerManagerImpl:160 calling notifyIterationEnds on org.matsim.core.controler.corelisteners.EventsHandlingImpl
2021-07-24 07:29:12,228  INFO EventsManagerImpl:161 removing Event-Handler: org.matsim.core.events.algorithms.EventWriterXML
2021-07-24 07:29:12,228  INFO EventsManagerImpl:161 removing Event-Handler: org.matsim.core.events.algorithms.EventWriterXML
2021-07-24 07:29:12,228  INFO ControlerListenerManagerImpl:160 calling notifyIterationEnds on org.matsim.core.scoring.PlansScoringImpl
2021-07-24 07:29:12,228  INFO ControlerListenerManagerImpl:167 calling notifyIterationEnds on org.matsim.counts.CountsControlerListener
2021-07-24 07:29:12,228  INFO CountSimComparisonTableWriter:93 Writing CountsSimComparison to scenarios\\seattle-formal-all\\justAcase\\MATSim\\0.output/ITERS/it.50/50.countscompare.txt
2021-07-24 07:29:12,229  INFO CountSimComparisonTableWriter:134 Writing 'average weekday traffic volume' to scenarios\\seattle-formal-all\\justAcase\\MATSim\\0.output/ITERS/it.50/50.countscompareAWTV.txt
2021-07-24 07:29:12,229  INFO ControlerListenerManagerImpl:167 calling notifyIterationEnds on org.matsim.analysis.ModeStatsControlerListener
2021-07-24 07:29:12,230  INFO ModeStatsControlerListener:155 -- mode share of mode bike = 0.0
2021-07-24 07:29:12,230  INFO ModeStatsControlerListener:155 -- mode share of mode car = 1.0
2021-07-24 07:29:12,230  INFO ModeStatsControlerListener:155 -- mode share of mode other = 0.0
2021-07-24 07:29:12,230  INFO ModeStatsControlerListener:155 -- mode share of mode pt = 0.0
2021-07-24 07:29:12,230  INFO ModeStatsControlerListener:155 -- mode share of mode ride = 0.0
2021-07-24 07:29:12,230  INFO ModeStatsControlerListener:155 -- mode share of mode walk = 0.0
2021-07-24 07:29:12,286  INFO ControlerListenerManagerImpl:167 calling notifyIterationEnds on org.matsim.analysis.ScoreStatsControlerListener
2021-07-24 07:29:12,286  INFO ScoreStatsControlerListener:191 -- avg. score of the executed plan of each agent: 94.78914012124204
2021-07-24 07:29:12,286  INFO ScoreStatsControlerListener:192 -- avg. score of the worst plan of each agent: -151.52268801658008
2021-07-24 07:29:12,286  INFO ScoreStatsControlerListener:193 -- avg. of the avg. plan score per agent: 25.88661511528475
2021-07-24 07:29:12,287  INFO ScoreStatsControlerListener:194 -- avg. score of the best plan of each agent: 94.800272715944
2021-07-24 07:29:12,349  INFO ControlerListenerManagerImpl:167 calling notifyIterationEnds on org.matsim.analysis.TravelDistanceStatsControlerListener
2021-07-24 07:29:12,349  INFO TravelDistanceStats:128 [TravelDistanceStats] using 1 thread(s).
2021-07-24 07:29:12,350  INFO TravelDistanceStats:141 [TravelDistanceStats] all threads finished.
2021-07-24 07:29:12,350  INFO TravelDistanceStats:161 -- average of the average leg distance per plan (executed plans only): 16791.58360193192
2021-07-24 07:29:12,350  INFO TravelDistanceStats:162 (TravelDistanceStats takes an average over all legs where the simulation reports travelled distances. These are car legs, pt legs,
2021-07-24 07:29:12,350  INFO TravelDistanceStats:163 (and teleported legs whose route contains a distance.)
2021-07-24 07:29:12,413  INFO ControlerListenerManagerImpl:167 calling notifyIterationEnds on org.matsim.analysis.LegHistogramListener
2021-07-24 07:29:12,415  INFO LegHistogramListener:72 number of legs:	60	100%
2021-07-24 07:29:12,415  INFO LegHistogramListener:79 number of car legs:	60	100.0%
2021-07-24 07:29:12,631  INFO ControlerListenerManagerImpl:167 calling notifyIterationEnds on org.matsim.analysis.LinkStatsControlerListener
2021-07-24 07:29:20,833  INFO ControlerListenerManagerImpl:171 [it.50] all ControlerIterationEndsListeners called.
2021-07-24 07:29:20,928  INFO AbstractController:170 ### ITERATION 50 ENDS
2021-07-24 07:29:20,928  INFO AbstractController:171 ###################################################
2021-07-24 07:29:20,928  INFO MatsimRuntimeModifications:58 S H U T D O W N   ---   start shutdown.
2021-07-24 07:29:20,928  INFO ControlerListenerManagerImpl:121 calling notifyShutdown on org.matsim.core.controler.corelisteners.EventsHandlingImpl
2021-07-24 07:29:20,929  INFO ControlerListenerManagerImpl:121 calling notifyShutdown on org.matsim.core.controler.corelisteners.DumpDataAtEndImpl
2021-07-24 07:29:20,931  INFO Counter:61 [PopulationWriter] dumped person # 1
2021-07-24 07:29:20,932  INFO Counter:61 [PopulationWriter] dumped person # 2
2021-07-24 07:29:20,936  INFO Counter:61 [PopulationWriter] dumped person # 4
2021-07-24 07:29:20,946  INFO Counter:61 [PopulationWriter] dumped person # 8
2021-07-24 07:29:20,952  INFO Counter:61 [PopulationWriter] dumped person # 16
2021-07-24 07:29:20,964  INFO PopulationWriter:139 Population written to: scenarios\\seattle-formal-all\\justAcase\\MATSim\\0.output/output_plans.xml.gz
2021-07-24 07:29:20,965  INFO Counter:67 [PopulationWriter] dumped person # 30
2021-07-24 07:29:20,967  INFO DumpDataAtEndImpl:298 re-projecting network from EPSG:32610 back to WGS84 for export
2021-07-24 07:29:20,967  WARN MGC:175 Assuming that coordinates are in longitude first notation, i.e. (longitude, latitude).
2021-07-24 07:29:20,967  WARN MGC:175 Assuming that coordinates are in longitude first notation, i.e. (longitude, latitude).
2021-07-24 07:29:20,971  INFO NetworkWriter:68 Writing network to file: scenarios\\seattle-formal-all\\justAcase\\MATSim\\0.output/output_network.xml.gz...
2021-07-24 07:29:22,510  INFO NetworkWriter:71 done.
2021-07-24 07:29:22,510  INFO Config:561 setting context to [file:/D:/iUTS/VTD/MyEnv/Matsim-projects/matsim-codes/scenarios/seattle-formal-all/justAcase/MATSim/]
2021-07-24 07:29:22,521  INFO VehicleWriterV1:55 Vehicles written to: scenarios\\seattle-formal-all\\justAcase\\MATSim\\0.output/output_vehicles.xml.gz
2021-07-24 07:29:22,522  INFO Counter:67 [HouseholdsWriter] dumped household # 0
2021-07-24 07:29:22,523  INFO LanesWriter:65 Using LaneDefinitionWriter20...
2021-07-24 07:29:22,524  INFO LanesWriter:74 writing to file: scenarios\\seattle-formal-all\\justAcase\\MATSim\\0.output/output_lanes.xml.gz
2021-07-24 07:29:22,595  INFO ControlerListenerManagerImpl:126 calling notifyShutdown on org.matsim.analysis.ModeStatsControlerListener
2021-07-24 07:29:22,595  INFO ControlerListenerManagerImpl:126 calling notifyShutdown on org.matsim.analysis.ScoreStatsControlerListener
2021-07-24 07:29:22,596  INFO ControlerListenerManagerImpl:126 calling notifyShutdown on org.matsim.analysis.TravelDistanceStatsControlerListener
2021-07-24 07:29:22,596  INFO ControlerListenerManagerImpl:129 all ControlerShutdownListeners called.
2021-07-24 07:29:22,596  INFO MatsimRuntimeModifications:81 S H U T D O W N   ---   shutdown completed.
2021-07-24 07:29:22,596  INFO OutputDirectoryLogging:146 closing the logfile, i.e. messages sent to the logger after this message are not written to the logfile.
