<?xml version="1.0" encoding="utf-8"?>
<!DOCTYPE population SYSTEM "http://www.matsim.org/files/dtd/population_v6.dtd">

<population>



<!-- ====================================================================== -->

	<person id="0">
		<plan score="-398.8077480527535" selected="no">
			<activity type="home" link="-290028_0_r" end_time="07:00:00" >
			</activity>
			<leg mode="car">
				<route type="links" start_link="-290028_0_r" end_link="-296751_0" trav_time="undefined" distance="32.11514692222864">-290028_0_r -296751_0</route>
			</leg>
			<activity type="work" link="-296751_0" end_time="11:00:00" >
			</activity>
			<leg mode="car">
				<route type="links" start_link="-296751_0" end_link="-290028_0_r" trav_time="undefined" distance="221.641853591518">-296751_0 -290028_0_r</route>
			</leg>
			<activity type="home" link="-290028_0_r" >
			</activity>
		</plan>

		<plan score="122.41416864434194" selected="yes">
			<activity type="home" link="-290028_0_r" end_time="07:00:00" >
			</activity>
			<leg mode="car" dep_time="07:00:00" trav_time="00:01:56">
				<route type="links" start_link="-290028_0_r" end_link="-296751_0" trav_time="00:01:56" distance="2197.4448798893177">-290028_0_r -290716_0 -301772_0 -285847_0 -299880_0 -296976_0 -283095_0 -285848_0 -301431_0_r -302892_0_r -282198_0_r -304435_0_r -294076_0_r -304501_0_r -297889_0_r -295812_0_r -282197_0_r -304131_0_r -299516_0_r -300541_0_r -287970_0_r -290281_0_r -296751_0_r -296751_0</route>
			</leg>
			<activity type="work" link="-296751_0" end_time="11:00:00" >
			</activity>
			<leg mode="car" dep_time="11:00:00" trav_time="00:02:11">
				<route type="links" start_link="-296751_0" end_link="-290028_0_r" trav_time="00:02:11" distance="2576.4982932278967">-296751_0 -290281_0 -287970_0 -300541_0 -299516_0 -304131_0 -282197_0 -295812_0 -297889_0 -304501_0 -294076_0 -304435_0 -282198_0 -302892_0 -301431_0 -285848_0_r -283095_0_r -296976_0_r -299880_0_r -285847_0_r -301772_0_r -290716_0_r -290028_0 -290028_0_r</route>
			</leg>
			<activity type="home" link="-290028_0_r" >
			</activity>
		</plan>

		<plan score="122.41416864434194" selected="no">
			<activity type="home" link="-290028_0_r" end_time="07:00:00" >
			</activity>
			<leg mode="car" dep_time="07:00:00" trav_time="00:02:09">
				<route type="links" start_link="-290028_0_r" end_link="-296751_0" trav_time="00:02:09" distance="2197.4448798893177">-290028_0_r -290716_0 -301772_0 -285847_0 -299880_0 -296976_0 -283095_0 -285848_0 -301431_0_r -302892_0_r -282198_0_r -304435_0_r -294076_0_r -304501_0_r -297889_0_r -295812_0_r -282197_0_r -304131_0_r -299516_0_r -300541_0_r -287970_0_r -290281_0_r -296751_0_r -296751_0</route>
			</leg>
			<activity type="work" link="-296751_0" end_time="11:00:00" >
			</activity>
			<leg mode="car" dep_time="11:00:00" trav_time="00:02:24">
				<route type="links" start_link="-296751_0" end_link="-290028_0_r" trav_time="00:02:24" distance="2576.4982932278967">-296751_0 -290281_0 -287970_0 -300541_0 -299516_0 -304131_0 -282197_0 -295812_0 -297889_0 -304501_0 -294076_0 -304435_0 -282198_0 -302892_0 -301431_0 -285848_0_r -283095_0_r -296976_0_r -299880_0_r -285847_0_r -301772_0_r -290716_0_r -290028_0 -290028_0_r</route>
			</leg>
			<activity type="home" link="-290028_0_r" >
			</activity>
		</plan>

		<plan score="122.41416864434194" selected="no">
			<activity type="home" link="-290028_0_r" end_time="07:00:00" >
			</activity>
			<leg mode="car" dep_time="07:00:00" trav_time="00:02:09">
				<route type="links" start_link="-290028_0_r" end_link="-296751_0" trav_time="00:02:09" distance="2197.4448798893177">-290028_0_r -290716_0 -301772_0 -285847_0 -299880_0 -296976_0 -283095_0 -285848_0 -301431_0_r -302892_0_r -282198_0_r -304435_0_r -294076_0_r -304501_0_r -297889_0_r -295812_0_r -282197_0_r -304131_0_r -299516_0_r -300541_0_r -287970_0_r -290281_0_r -296751_0_r -296751_0</route>
			</leg>
			<activity type="work" link="-296751_0" end_time="11:00:00" >
			</activity>
			<leg mode="car" dep_time="11:00:00" trav_time="00:02:24">
				<route type="links" start_link="-296751_0" end_link="-290028_0_r" trav_time="00:02:24" distance="2576.4982932278967">-296751_0 -290281_0 -287970_0 -300541_0 -299516_0 -304131_0 -282197_0 -295812_0 -297889_0 -304501_0 -294076_0 -304435_0 -282198_0 -302892_0 -301431_0 -285848_0_r -283095_0_r -296976_0_r -299880_0_r -285847_0_r -301772_0_r -290716_0_r -290028_0 -290028_0_r</route>
			</leg>
			<activity type="home" link="-290028_0_r" >
			</activity>
		</plan>

		<plan score="122.41416864434194" selected="no">
			<activity type="home" link="-290028_0_r" end_time="07:00:00" >
			</activity>
			<leg mode="car" dep_time="07:00:00" trav_time="00:02:09">
				<route type="links" start_link="-290028_0_r" end_link="-296751_0" trav_time="00:02:09" distance="2197.4448798893177">-290028_0_r -290716_0 -301772_0 -285847_0 -299880_0 -296976_0 -283095_0 -285848_0 -301431_0_r -302892_0_r -282198_0_r -304435_0_r -294076_0_r -304501_0_r -297889_0_r -295812_0_r -282197_0_r -304131_0_r -299516_0_r -300541_0_r -287970_0_r -290281_0_r -296751_0_r -296751_0</route>
			</leg>
			<activity type="work" link="-296751_0" end_time="11:00:00" >
			</activity>
			<leg mode="car" dep_time="11:00:00" trav_time="00:02:24">
				<route type="links" start_link="-296751_0" end_link="-290028_0_r" trav_time="00:02:24" distance="2576.4982932278967">-296751_0 -290281_0 -287970_0 -300541_0 -299516_0 -304131_0 -282197_0 -295812_0 -297889_0 -304501_0 -294076_0 -304435_0 -282198_0 -302892_0 -301431_0 -285848_0_r -283095_0_r -296976_0_r -299880_0_r -285847_0_r -301772_0_r -290716_0_r -290028_0 -290028_0_r</route>
			</leg>
			<activity type="home" link="-290028_0_r" >
			</activity>
		</plan>

		<plan score="122.41416864434194" selected="no">
			<activity type="home" link="-290028_0_r" end_time="07:00:00" >
			</activity>
			<leg mode="car" dep_time="07:00:00" trav_time="00:02:09">
				<route type="links" start_link="-290028_0_r" end_link="-296751_0" trav_time="00:02:09" distance="2197.4448798893177">-290028_0_r -290716_0 -301772_0 -285847_0 -299880_0 -296976_0 -283095_0 -285848_0 -301431_0_r -302892_0_r -282198_0_r -304435_0_r -294076_0_r -304501_0_r -297889_0_r -295812_0_r -282197_0_r -304131_0_r -299516_0_r -300541_0_r -287970_0_r -290281_0_r -296751_0_r -296751_0</route>
			</leg>
			<activity type="work" link="-296751_0" end_time="11:00:00" >
			</activity>
			<leg mode="car" dep_time="11:00:00" trav_time="00:02:24">
				<route type="links" start_link="-296751_0" end_link="-290028_0_r" trav_time="00:02:24" distance="2576.4982932278967">-296751_0 -290281_0 -287970_0 -300541_0 -299516_0 -304131_0 -282197_0 -295812_0 -297889_0 -304501_0 -294076_0 -304435_0 -282198_0 -302892_0 -301431_0 -285848_0_r -283095_0_r -296976_0_r -299880_0_r -285847_0_r -301772_0_r -290716_0_r -290028_0 -290028_0_r</route>
			</leg>
			<activity type="home" link="-290028_0_r" >
			</activity>
		</plan>

		<plan score="122.41416864434194" selected="no">
			<activity type="home" link="-290028_0_r" end_time="07:00:00" >
			</activity>
			<leg mode="car" dep_time="07:00:00" trav_time="00:02:09">
				<route type="links" start_link="-290028_0_r" end_link="-296751_0" trav_time="00:02:09" distance="2197.4448798893177">-290028_0_r -290716_0 -301772_0 -285847_0 -299880_0 -296976_0 -283095_0 -285848_0 -301431_0_r -302892_0_r -282198_0_r -304435_0_r -294076_0_r -304501_0_r -297889_0_r -295812_0_r -282197_0_r -304131_0_r -299516_0_r -300541_0_r -287970_0_r -290281_0_r -296751_0_r -296751_0</route>
			</leg>
			<activity type="work" link="-296751_0" end_time="11:00:00" >
			</activity>
			<leg mode="car" dep_time="11:00:00" trav_time="00:02:24">
				<route type="links" start_link="-296751_0" end_link="-290028_0_r" trav_time="00:02:24" distance="2576.4982932278967">-296751_0 -290281_0 -287970_0 -300541_0 -299516_0 -304131_0 -282197_0 -295812_0 -297889_0 -304501_0 -294076_0 -304435_0 -282198_0 -302892_0 -301431_0 -285848_0_r -283095_0_r -296976_0_r -299880_0_r -285847_0_r -301772_0_r -290716_0_r -290028_0 -290028_0_r</route>
			</leg>
			<activity type="home" link="-290028_0_r" >
			</activity>
		</plan>

		<plan score="122.41416864434194" selected="no">
			<activity type="home" link="-290028_0_r" end_time="07:00:00" >
			</activity>
			<leg mode="car" dep_time="07:00:00" trav_time="00:02:09">
				<route type="links" start_link="-290028_0_r" end_link="-296751_0" trav_time="00:02:09" distance="2197.4448798893177">-290028_0_r -290716_0 -301772_0 -285847_0 -299880_0 -296976_0 -283095_0 -285848_0 -301431_0_r -302892_0_r -282198_0_r -304435_0_r -294076_0_r -304501_0_r -297889_0_r -295812_0_r -282197_0_r -304131_0_r -299516_0_r -300541_0_r -287970_0_r -290281_0_r -296751_0_r -296751_0</route>
			</leg>
			<activity type="work" link="-296751_0" end_time="11:00:00" >
			</activity>
			<leg mode="car" dep_time="11:00:00" trav_time="00:02:24">
				<route type="links" start_link="-296751_0" end_link="-290028_0_r" trav_time="00:02:24" distance="2576.4982932278967">-296751_0 -290281_0 -287970_0 -300541_0 -299516_0 -304131_0 -282197_0 -295812_0 -297889_0 -304501_0 -294076_0 -304435_0 -282198_0 -302892_0 -301431_0 -285848_0_r -283095_0_r -296976_0_r -299880_0_r -285847_0_r -301772_0_r -290716_0_r -290028_0 -290028_0_r</route>
			</leg>
			<activity type="home" link="-290028_0_r" >
			</activity>
		</plan>

		<plan score="122.41416864434194" selected="no">
			<activity type="home" link="-290028_0_r" end_time="07:00:00" >
			</activity>
			<leg mode="car" dep_time="07:00:00" trav_time="00:02:09">
				<route type="links" start_link="-290028_0_r" end_link="-296751_0" trav_time="00:02:09" distance="2197.4448798893177">-290028_0_r -290716_0 -301772_0 -285847_0 -299880_0 -296976_0 -283095_0 -285848_0 -301431_0_r -302892_0_r -282198_0_r -304435_0_r -294076_0_r -304501_0_r -297889_0_r -295812_0_r -282197_0_r -304131_0_r -299516_0_r -300541_0_r -287970_0_r -290281_0_r -296751_0_r -296751_0</route>
			</leg>
			<activity type="work" link="-296751_0" end_time="11:00:00" >
			</activity>
			<leg mode="car" dep_time="11:00:00" trav_time="00:02:24">
				<route type="links" start_link="-296751_0" end_link="-290028_0_r" trav_time="00:02:24" distance="2576.4982932278967">-296751_0 -290281_0 -287970_0 -300541_0 -299516_0 -304131_0 -282197_0 -295812_0 -297889_0 -304501_0 -294076_0 -304435_0 -282198_0 -302892_0 -301431_0 -285848_0_r -283095_0_r -296976_0_r -299880_0_r -285847_0_r -301772_0_r -290716_0_r -290028_0 -290028_0_r</route>
			</leg>
			<activity type="home" link="-290028_0_r" >
			</activity>
		</plan>

		<plan score="122.41416864434194" selected="no">
			<activity type="home" link="-290028_0_r" end_time="07:00:00" >
			</activity>
			<leg mode="car" dep_time="07:00:00" trav_time="00:02:09">
				<route type="links" start_link="-290028_0_r" end_link="-296751_0" trav_time="00:02:09" distance="2197.4448798893177">-290028_0_r -290716_0 -301772_0 -285847_0 -299880_0 -296976_0 -283095_0 -285848_0 -301431_0_r -302892_0_r -282198_0_r -304435_0_r -294076_0_r -304501_0_r -297889_0_r -295812_0_r -282197_0_r -304131_0_r -299516_0_r -300541_0_r -287970_0_r -290281_0_r -296751_0_r -296751_0</route>
			</leg>
			<activity type="work" link="-296751_0" end_time="11:00:00" >
			</activity>
			<leg mode="car" dep_time="11:00:00" trav_time="00:02:24">
				<route type="links" start_link="-296751_0" end_link="-290028_0_r" trav_time="00:02:24" distance="2576.4982932278967">-296751_0 -290281_0 -287970_0 -300541_0 -299516_0 -304131_0 -282197_0 -295812_0 -297889_0 -304501_0 -294076_0 -304435_0 -282198_0 -302892_0 -301431_0 -285848_0_r -283095_0_r -296976_0_r -299880_0_r -285847_0_r -301772_0_r -290716_0_r -290028_0 -290028_0_r</route>
			</leg>
			<activity type="home" link="-290028_0_r" >
			</activity>
		</plan>

		<plan score="122.41416864434194" selected="no">
			<activity type="home" link="-290028_0_r" end_time="07:00:00" >
			</activity>
			<leg mode="car" dep_time="07:00:00" trav_time="00:02:09">
				<route type="links" start_link="-290028_0_r" end_link="-296751_0" trav_time="00:02:09" distance="2197.4448798893177">-290028_0_r -290716_0 -301772_0 -285847_0 -299880_0 -296976_0 -283095_0 -285848_0 -301431_0_r -302892_0_r -282198_0_r -304435_0_r -294076_0_r -304501_0_r -297889_0_r -295812_0_r -282197_0_r -304131_0_r -299516_0_r -300541_0_r -287970_0_r -290281_0_r -296751_0_r -296751_0</route>
			</leg>
			<activity type="work" link="-296751_0" end_time="11:00:00" >
			</activity>
			<leg mode="car" dep_time="11:00:00" trav_time="00:02:24">
				<route type="links" start_link="-296751_0" end_link="-290028_0_r" trav_time="00:02:24" distance="2576.4982932278967">-296751_0 -290281_0 -287970_0 -300541_0 -299516_0 -304131_0 -282197_0 -295812_0 -297889_0 -304501_0 -294076_0 -304435_0 -282198_0 -302892_0 -301431_0 -285848_0_r -283095_0_r -296976_0_r -299880_0_r -285847_0_r -301772_0_r -290716_0_r -290028_0 -290028_0_r</route>
			</leg>
			<activity type="home" link="-290028_0_r" >
			</activity>
		</plan>

		<plan score="122.41416864434194" selected="no">
			<activity type="home" link="-290028_0_r" end_time="07:00:00" >
			</activity>
			<leg mode="car" dep_time="07:00:00" trav_time="00:02:09">
				<route type="links" start_link="-290028_0_r" end_link="-296751_0" trav_time="00:02:09" distance="2197.4448798893177">-290028_0_r -290716_0 -301772_0 -285847_0 -299880_0 -296976_0 -283095_0 -285848_0 -301431_0_r -302892_0_r -282198_0_r -304435_0_r -294076_0_r -304501_0_r -297889_0_r -295812_0_r -282197_0_r -304131_0_r -299516_0_r -300541_0_r -287970_0_r -290281_0_r -296751_0_r -296751_0</route>
			</leg>
			<activity type="work" link="-296751_0" end_time="11:00:00" >
			</activity>
			<leg mode="car" dep_time="11:00:00" trav_time="00:02:24">
				<route type="links" start_link="-296751_0" end_link="-290028_0_r" trav_time="00:02:24" distance="2576.4982932278967">-296751_0 -290281_0 -287970_0 -300541_0 -299516_0 -304131_0 -282197_0 -295812_0 -297889_0 -304501_0 -294076_0 -304435_0 -282198_0 -302892_0 -301431_0 -285848_0_r -283095_0_r -296976_0_r -299880_0_r -285847_0_r -301772_0_r -290716_0_r -290028_0 -290028_0_r</route>
			</leg>
			<activity type="home" link="-290028_0_r" >
			</activity>
		</plan>

		<plan score="122.41416864434194" selected="no">
			<activity type="home" link="-290028_0_r" end_time="07:00:00" >
			</activity>
			<leg mode="car" dep_time="07:00:00" trav_time="00:02:09">
				<route type="links" start_link="-290028_0_r" end_link="-296751_0" trav_time="00:02:09" distance="2197.4448798893177">-290028_0_r -290716_0 -301772_0 -285847_0 -299880_0 -296976_0 -283095_0 -285848_0 -301431_0_r -302892_0_r -282198_0_r -304435_0_r -294076_0_r -304501_0_r -297889_0_r -295812_0_r -282197_0_r -304131_0_r -299516_0_r -300541_0_r -287970_0_r -290281_0_r -296751_0_r -296751_0</route>
			</leg>
			<activity type="work" link="-296751_0" end_time="11:00:00" >
			</activity>
			<leg mode="car" dep_time="11:00:00" trav_time="00:02:24">
				<route type="links" start_link="-296751_0" end_link="-290028_0_r" trav_time="00:02:24" distance="2576.4982932278967">-296751_0 -290281_0 -287970_0 -300541_0 -299516_0 -304131_0 -282197_0 -295812_0 -297889_0 -304501_0 -294076_0 -304435_0 -282198_0 -302892_0 -301431_0 -285848_0_r -283095_0_r -296976_0_r -299880_0_r -285847_0_r -301772_0_r -290716_0_r -290028_0 -290028_0_r</route>
			</leg>
			<activity type="home" link="-290028_0_r" >
			</activity>
		</plan>

		<plan score="122.41416864434194" selected="no">
			<activity type="home" link="-290028_0_r" end_time="07:00:00" >
			</activity>
			<leg mode="car" dep_time="07:00:00" trav_time="00:02:09">
				<route type="links" start_link="-290028_0_r" end_link="-296751_0" trav_time="00:02:09" distance="2197.4448798893177">-290028_0_r -290716_0 -301772_0 -285847_0 -299880_0 -296976_0 -283095_0 -285848_0 -301431_0_r -302892_0_r -282198_0_r -304435_0_r -294076_0_r -304501_0_r -297889_0_r -295812_0_r -282197_0_r -304131_0_r -299516_0_r -300541_0_r -287970_0_r -290281_0_r -296751_0_r -296751_0</route>
			</leg>
			<activity type="work" link="-296751_0" end_time="11:00:00" >
			</activity>
			<leg mode="car" dep_time="11:00:00" trav_time="00:02:24">
				<route type="links" start_link="-296751_0" end_link="-290028_0_r" trav_time="00:02:24" distance="2576.4982932278967">-296751_0 -290281_0 -287970_0 -300541_0 -299516_0 -304131_0 -282197_0 -295812_0 -297889_0 -304501_0 -294076_0 -304435_0 -282198_0 -302892_0 -301431_0 -285848_0_r -283095_0_r -296976_0_r -299880_0_r -285847_0_r -301772_0_r -290716_0_r -290028_0 -290028_0_r</route>
			</leg>
			<activity type="home" link="-290028_0_r" >
			</activity>
		</plan>

		<plan score="122.41416864434194" selected="no">
			<activity type="home" link="-290028_0_r" end_time="07:00:00" >
			</activity>
			<leg mode="car" dep_time="07:00:00" trav_time="00:02:09">
				<route type="links" start_link="-290028_0_r" end_link="-296751_0" trav_time="00:02:09" distance="2197.4448798893177">-290028_0_r -290716_0 -301772_0 -285847_0 -299880_0 -296976_0 -283095_0 -285848_0 -301431_0_r -302892_0_r -282198_0_r -304435_0_r -294076_0_r -304501_0_r -297889_0_r -295812_0_r -282197_0_r -304131_0_r -299516_0_r -300541_0_r -287970_0_r -290281_0_r -296751_0_r -296751_0</route>
			</leg>
			<activity type="work" link="-296751_0" end_time="11:00:00" >
			</activity>
			<leg mode="car" dep_time="11:00:00" trav_time="00:02:24">
				<route type="links" start_link="-296751_0" end_link="-290028_0_r" trav_time="00:02:24" distance="2576.4982932278967">-296751_0 -290281_0 -287970_0 -300541_0 -299516_0 -304131_0 -282197_0 -295812_0 -297889_0 -304501_0 -294076_0 -304435_0 -282198_0 -302892_0 -301431_0 -285848_0_r -283095_0_r -296976_0_r -299880_0_r -285847_0_r -301772_0_r -290716_0_r -290028_0 -290028_0_r</route>
			</leg>
			<activity type="home" link="-290028_0_r" >
			</activity>
		</plan>

		<plan score="122.41416864434194" selected="no">
			<activity type="home" link="-290028_0_r" end_time="07:00:00" >
			</activity>
			<leg mode="car" dep_time="07:00:00" trav_time="00:02:09">
				<route type="links" start_link="-290028_0_r" end_link="-296751_0" trav_time="00:02:09" distance="2197.4448798893177">-290028_0_r -290716_0 -301772_0 -285847_0 -299880_0 -296976_0 -283095_0 -285848_0 -301431_0_r -302892_0_r -282198_0_r -304435_0_r -294076_0_r -304501_0_r -297889_0_r -295812_0_r -282197_0_r -304131_0_r -299516_0_r -300541_0_r -287970_0_r -290281_0_r -296751_0_r -296751_0</route>
			</leg>
			<activity type="work" link="-296751_0" end_time="11:00:00" >
			</activity>
			<leg mode="car" dep_time="11:00:00" trav_time="00:02:24">
				<route type="links" start_link="-296751_0" end_link="-290028_0_r" trav_time="00:02:24" distance="2576.4982932278967">-296751_0 -290281_0 -287970_0 -300541_0 -299516_0 -304131_0 -282197_0 -295812_0 -297889_0 -304501_0 -294076_0 -304435_0 -282198_0 -302892_0 -301431_0 -285848_0_r -283095_0_r -296976_0_r -299880_0_r -285847_0_r -301772_0_r -290716_0_r -290028_0 -290028_0_r</route>
			</leg>
			<activity type="home" link="-290028_0_r" >
			</activity>
		</plan>

		<plan score="122.41416864434194" selected="no">
			<activity type="home" link="-290028_0_r" end_time="07:00:00" >
			</activity>
			<leg mode="car" dep_time="07:00:00" trav_time="00:02:09">
				<route type="links" start_link="-290028_0_r" end_link="-296751_0" trav_time="00:02:09" distance="2197.4448798893177">-290028_0_r -290716_0 -301772_0 -285847_0 -299880_0 -296976_0 -283095_0 -285848_0 -301431_0_r -302892_0_r -282198_0_r -304435_0_r -294076_0_r -304501_0_r -297889_0_r -295812_0_r -282197_0_r -304131_0_r -299516_0_r -300541_0_r -287970_0_r -290281_0_r -296751_0_r -296751_0</route>
			</leg>
			<activity type="work" link="-296751_0" end_time="11:00:00" >
			</activity>
			<leg mode="car" dep_time="11:00:00" trav_time="00:02:24">
				<route type="links" start_link="-296751_0" end_link="-290028_0_r" trav_time="00:02:24" distance="2576.4982932278967">-296751_0 -290281_0 -287970_0 -300541_0 -299516_0 -304131_0 -282197_0 -295812_0 -297889_0 -304501_0 -294076_0 -304435_0 -282198_0 -302892_0 -301431_0 -285848_0_r -283095_0_r -296976_0_r -299880_0_r -285847_0_r -301772_0_r -290716_0_r -290028_0 -290028_0_r</route>
			</leg>
			<activity type="home" link="-290028_0_r" >
			</activity>
		</plan>

		<plan score="122.41416864434194" selected="no">
			<activity type="home" link="-290028_0_r" end_time="07:00:00" >
			</activity>
			<leg mode="car" dep_time="07:00:00" trav_time="00:02:09">
				<route type="links" start_link="-290028_0_r" end_link="-296751_0" trav_time="00:02:09" distance="2197.4448798893177">-290028_0_r -290716_0 -301772_0 -285847_0 -299880_0 -296976_0 -283095_0 -285848_0 -301431_0_r -302892_0_r -282198_0_r -304435_0_r -294076_0_r -304501_0_r -297889_0_r -295812_0_r -282197_0_r -304131_0_r -299516_0_r -300541_0_r -287970_0_r -290281_0_r -296751_0_r -296751_0</route>
			</leg>
			<activity type="work" link="-296751_0" end_time="11:00:00" >
			</activity>
			<leg mode="car" dep_time="11:00:00" trav_time="00:02:24">
				<route type="links" start_link="-296751_0" end_link="-290028_0_r" trav_time="00:02:24" distance="2576.4982932278967">-296751_0 -290281_0 -287970_0 -300541_0 -299516_0 -304131_0 -282197_0 -295812_0 -297889_0 -304501_0 -294076_0 -304435_0 -282198_0 -302892_0 -301431_0 -285848_0_r -283095_0_r -296976_0_r -299880_0_r -285847_0_r -301772_0_r -290716_0_r -290028_0 -290028_0_r</route>
			</leg>
			<activity type="home" link="-290028_0_r" >
			</activity>
		</plan>

		<plan score="122.41416864434194" selected="no">
			<activity type="home" link="-290028_0_r" end_time="07:00:00" >
			</activity>
			<leg mode="car" dep_time="07:00:00" trav_time="00:02:09">
				<route type="links" start_link="-290028_0_r" end_link="-296751_0" trav_time="00:02:09" distance="2197.4448798893177">-290028_0_r -290716_0 -301772_0 -285847_0 -299880_0 -296976_0 -283095_0 -285848_0 -301431_0_r -302892_0_r -282198_0_r -304435_0_r -294076_0_r -304501_0_r -297889_0_r -295812_0_r -282197_0_r -304131_0_r -299516_0_r -300541_0_r -287970_0_r -290281_0_r -296751_0_r -296751_0</route>
			</leg>
			<activity type="work" link="-296751_0" end_time="11:00:00" >
			</activity>
			<leg mode="car" dep_time="11:00:00" trav_time="00:02:24">
				<route type="links" start_link="-296751_0" end_link="-290028_0_r" trav_time="00:02:24" distance="2576.4982932278967">-296751_0 -290281_0 -287970_0 -300541_0 -299516_0 -304131_0 -282197_0 -295812_0 -297889_0 -304501_0 -294076_0 -304435_0 -282198_0 -302892_0 -301431_0 -285848_0_r -283095_0_r -296976_0_r -299880_0_r -285847_0_r -301772_0_r -290716_0_r -290028_0 -290028_0_r</route>
			</leg>
			<activity type="home" link="-290028_0_r" >
			</activity>
		</plan>

		<plan score="122.41416864434194" selected="no">
			<activity type="home" link="-290028_0_r" end_time="07:00:00" >
			</activity>
			<leg mode="car" dep_time="07:00:00" trav_time="00:02:09">
				<route type="links" start_link="-290028_0_r" end_link="-296751_0" trav_time="00:02:09" distance="2197.4448798893177">-290028_0_r -290716_0 -301772_0 -285847_0 -299880_0 -296976_0 -283095_0 -285848_0 -301431_0_r -302892_0_r -282198_0_r -304435_0_r -294076_0_r -304501_0_r -297889_0_r -295812_0_r -282197_0_r -304131_0_r -299516_0_r -300541_0_r -287970_0_r -290281_0_r -296751_0_r -296751_0</route>
			</leg>
			<activity type="work" link="-296751_0" end_time="11:00:00" >
			</activity>
			<leg mode="car" dep_time="11:00:00" trav_time="00:02:24">
				<route type="links" start_link="-296751_0" end_link="-290028_0_r" trav_time="00:02:24" distance="2576.4982932278967">-296751_0 -290281_0 -287970_0 -300541_0 -299516_0 -304131_0 -282197_0 -295812_0 -297889_0 -304501_0 -294076_0 -304435_0 -282198_0 -302892_0 -301431_0 -285848_0_r -283095_0_r -296976_0_r -299880_0_r -285847_0_r -301772_0_r -290716_0_r -290028_0 -290028_0_r</route>
			</leg>
			<activity type="home" link="-290028_0_r" >
			</activity>
		</plan>

		<plan score="122.41416864434194" selected="no">
			<activity type="home" link="-290028_0_r" end_time="07:00:00" >
			</activity>
			<leg mode="car" dep_time="07:00:00" trav_time="00:02:09">
				<route type="links" start_link="-290028_0_r" end_link="-296751_0" trav_time="00:02:09" distance="2197.4448798893177">-290028_0_r -290716_0 -301772_0 -285847_0 -299880_0 -296976_0 -283095_0 -285848_0 -301431_0_r -302892_0_r -282198_0_r -304435_0_r -294076_0_r -304501_0_r -297889_0_r -295812_0_r -282197_0_r -304131_0_r -299516_0_r -300541_0_r -287970_0_r -290281_0_r -296751_0_r -296751_0</route>
			</leg>
			<activity type="work" link="-296751_0" end_time="11:00:00" >
			</activity>
			<leg mode="car" dep_time="11:00:00" trav_time="00:02:24">
				<route type="links" start_link="-296751_0" end_link="-290028_0_r" trav_time="00:02:24" distance="2576.4982932278967">-296751_0 -290281_0 -287970_0 -300541_0 -299516_0 -304131_0 -282197_0 -295812_0 -297889_0 -304501_0 -294076_0 -304435_0 -282198_0 -302892_0 -301431_0 -285848_0_r -283095_0_r -296976_0_r -299880_0_r -285847_0_r -301772_0_r -290716_0_r -290028_0 -290028_0_r</route>
			</leg>
			<activity type="home" link="-290028_0_r" >
			</activity>
		</plan>

		<plan score="122.41416864434194" selected="no">
			<activity type="home" link="-290028_0_r" end_time="07:00:00" >
			</activity>
			<leg mode="car" dep_time="07:00:00" trav_time="00:02:09">
				<route type="links" start_link="-290028_0_r" end_link="-296751_0" trav_time="00:02:09" distance="2197.4448798893177">-290028_0_r -290716_0 -301772_0 -285847_0 -299880_0 -296976_0 -283095_0 -285848_0 -301431_0_r -302892_0_r -282198_0_r -304435_0_r -294076_0_r -304501_0_r -297889_0_r -295812_0_r -282197_0_r -304131_0_r -299516_0_r -300541_0_r -287970_0_r -290281_0_r -296751_0_r -296751_0</route>
			</leg>
			<activity type="work" link="-296751_0" end_time="11:00:00" >
			</activity>
			<leg mode="car" dep_time="11:00:00" trav_time="00:02:24">
				<route type="links" start_link="-296751_0" end_link="-290028_0_r" trav_time="00:02:24" distance="2576.4982932278967">-296751_0 -290281_0 -287970_0 -300541_0 -299516_0 -304131_0 -282197_0 -295812_0 -297889_0 -304501_0 -294076_0 -304435_0 -282198_0 -302892_0 -301431_0 -285848_0_r -283095_0_r -296976_0_r -299880_0_r -285847_0_r -301772_0_r -290716_0_r -290028_0 -290028_0_r</route>
			</leg>
			<activity type="home" link="-290028_0_r" >
			</activity>
		</plan>

		<plan score="122.41416864434194" selected="no">
			<activity type="home" link="-290028_0_r" end_time="07:00:00" >
			</activity>
			<leg mode="car" dep_time="07:00:00" trav_time="00:02:09">
				<route type="links" start_link="-290028_0_r" end_link="-296751_0" trav_time="00:02:09" distance="2197.4448798893177">-290028_0_r -290716_0 -301772_0 -285847_0 -299880_0 -296976_0 -283095_0 -285848_0 -301431_0_r -302892_0_r -282198_0_r -304435_0_r -294076_0_r -304501_0_r -297889_0_r -295812_0_r -282197_0_r -304131_0_r -299516_0_r -300541_0_r -287970_0_r -290281_0_r -296751_0_r -296751_0</route>
			</leg>
			<activity type="work" link="-296751_0" end_time="11:00:00" >
			</activity>
			<leg mode="car" dep_time="11:00:00" trav_time="00:02:24">
				<route type="links" start_link="-296751_0" end_link="-290028_0_r" trav_time="00:02:24" distance="2576.4982932278967">-296751_0 -290281_0 -287970_0 -300541_0 -299516_0 -304131_0 -282197_0 -295812_0 -297889_0 -304501_0 -294076_0 -304435_0 -282198_0 -302892_0 -301431_0 -285848_0_r -283095_0_r -296976_0_r -299880_0_r -285847_0_r -301772_0_r -290716_0_r -290028_0 -290028_0_r</route>
			</leg>
			<activity type="home" link="-290028_0_r" >
			</activity>
		</plan>

		<plan score="122.41416864434194" selected="no">
			<activity type="home" link="-290028_0_r" end_time="07:00:00" >
			</activity>
			<leg mode="car" dep_time="07:00:00" trav_time="00:02:09">
				<route type="links" start_link="-290028_0_r" end_link="-296751_0" trav_time="00:02:09" distance="2197.4448798893177">-290028_0_r -290716_0 -301772_0 -285847_0 -299880_0 -296976_0 -283095_0 -285848_0 -301431_0_r -302892_0_r -282198_0_r -304435_0_r -294076_0_r -304501_0_r -297889_0_r -295812_0_r -282197_0_r -304131_0_r -299516_0_r -300541_0_r -287970_0_r -290281_0_r -296751_0_r -296751_0</route>
			</leg>
			<activity type="work" link="-296751_0" end_time="11:00:00" >
			</activity>
			<leg mode="car" dep_time="11:00:00" trav_time="00:02:24">
				<route type="links" start_link="-296751_0" end_link="-290028_0_r" trav_time="00:02:24" distance="2576.4982932278967">-296751_0 -290281_0 -287970_0 -300541_0 -299516_0 -304131_0 -282197_0 -295812_0 -297889_0 -304501_0 -294076_0 -304435_0 -282198_0 -302892_0 -301431_0 -285848_0_r -283095_0_r -296976_0_r -299880_0_r -285847_0_r -301772_0_r -290716_0_r -290028_0 -290028_0_r</route>
			</leg>
			<activity type="home" link="-290028_0_r" >
			</activity>
		</plan>

		<plan score="122.41416864434194" selected="no">
			<activity type="home" link="-290028_0_r" end_time="07:00:00" >
			</activity>
			<leg mode="car" dep_time="07:00:00" trav_time="00:02:09">
				<route type="links" start_link="-290028_0_r" end_link="-296751_0" trav_time="00:02:09" distance="2197.4448798893177">-290028_0_r -290716_0 -301772_0 -285847_0 -299880_0 -296976_0 -283095_0 -285848_0 -301431_0_r -302892_0_r -282198_0_r -304435_0_r -294076_0_r -304501_0_r -297889_0_r -295812_0_r -282197_0_r -304131_0_r -299516_0_r -300541_0_r -287970_0_r -290281_0_r -296751_0_r -296751_0</route>
			</leg>
			<activity type="work" link="-296751_0" end_time="11:00:00" >
			</activity>
			<leg mode="car" dep_time="11:00:00" trav_time="00:02:24">
				<route type="links" start_link="-296751_0" end_link="-290028_0_r" trav_time="00:02:24" distance="2576.4982932278967">-296751_0 -290281_0 -287970_0 -300541_0 -299516_0 -304131_0 -282197_0 -295812_0 -297889_0 -304501_0 -294076_0 -304435_0 -282198_0 -302892_0 -301431_0 -285848_0_r -283095_0_r -296976_0_r -299880_0_r -285847_0_r -301772_0_r -290716_0_r -290028_0 -290028_0_r</route>
			</leg>
			<activity type="home" link="-290028_0_r" >
			</activity>
		</plan>

		<plan score="122.41416864434194" selected="no">
			<activity type="home" link="-290028_0_r" end_time="07:00:00" >
			</activity>
			<leg mode="car" dep_time="07:00:00" trav_time="00:02:09">
				<route type="links" start_link="-290028_0_r" end_link="-296751_0" trav_time="00:02:09" distance="2197.4448798893177">-290028_0_r -290716_0 -301772_0 -285847_0 -299880_0 -296976_0 -283095_0 -285848_0 -301431_0_r -302892_0_r -282198_0_r -304435_0_r -294076_0_r -304501_0_r -297889_0_r -295812_0_r -282197_0_r -304131_0_r -299516_0_r -300541_0_r -287970_0_r -290281_0_r -296751_0_r -296751_0</route>
			</leg>
			<activity type="work" link="-296751_0" end_time="11:00:00" >
			</activity>
			<leg mode="car" dep_time="11:00:00" trav_time="00:02:24">
				<route type="links" start_link="-296751_0" end_link="-290028_0_r" trav_time="00:02:24" distance="2576.4982932278967">-296751_0 -290281_0 -287970_0 -300541_0 -299516_0 -304131_0 -282197_0 -295812_0 -297889_0 -304501_0 -294076_0 -304435_0 -282198_0 -302892_0 -301431_0 -285848_0_r -283095_0_r -296976_0_r -299880_0_r -285847_0_r -301772_0_r -290716_0_r -290028_0 -290028_0_r</route>
			</leg>
			<activity type="home" link="-290028_0_r" >
			</activity>
		</plan>

		<plan score="122.41416864434194" selected="no">
			<activity type="home" link="-290028_0_r" end_time="07:00:00" >
			</activity>
			<leg mode="car" dep_time="07:00:00" trav_time="00:02:09">
				<route type="links" start_link="-290028_0_r" end_link="-296751_0" trav_time="00:02:09" distance="2197.4448798893177">-290028_0_r -290716_0 -301772_0 -285847_0 -299880_0 -296976_0 -283095_0 -285848_0 -301431_0_r -302892_0_r -282198_0_r -304435_0_r -294076_0_r -304501_0_r -297889_0_r -295812_0_r -282197_0_r -304131_0_r -299516_0_r -300541_0_r -287970_0_r -290281_0_r -296751_0_r -296751_0</route>
			</leg>
			<activity type="work" link="-296751_0" end_time="11:00:00" >
			</activity>
			<leg mode="car" dep_time="11:00:00" trav_time="00:02:24">
				<route type="links" start_link="-296751_0" end_link="-290028_0_r" trav_time="00:02:24" distance="2576.4982932278967">-296751_0 -290281_0 -287970_0 -300541_0 -299516_0 -304131_0 -282197_0 -295812_0 -297889_0 -304501_0 -294076_0 -304435_0 -282198_0 -302892_0 -301431_0 -285848_0_r -283095_0_r -296976_0_r -299880_0_r -285847_0_r -301772_0_r -290716_0_r -290028_0 -290028_0_r</route>
			</leg>
			<activity type="home" link="-290028_0_r" >
			</activity>
		</plan>

		<plan score="122.41416864434194" selected="no">
			<activity type="home" link="-290028_0_r" end_time="07:00:00" >
			</activity>
			<leg mode="car" dep_time="07:00:00" trav_time="00:02:09">
				<route type="links" start_link="-290028_0_r" end_link="-296751_0" trav_time="00:02:09" distance="2197.4448798893177">-290028_0_r -290716_0 -301772_0 -285847_0 -299880_0 -296976_0 -283095_0 -285848_0 -301431_0_r -302892_0_r -282198_0_r -304435_0_r -294076_0_r -304501_0_r -297889_0_r -295812_0_r -282197_0_r -304131_0_r -299516_0_r -300541_0_r -287970_0_r -290281_0_r -296751_0_r -296751_0</route>
			</leg>
			<activity type="work" link="-296751_0" end_time="11:00:00" >
			</activity>
			<leg mode="car" dep_time="11:00:00" trav_time="00:02:24">
				<route type="links" start_link="-296751_0" end_link="-290028_0_r" trav_time="00:02:24" distance="2576.4982932278967">-296751_0 -290281_0 -287970_0 -300541_0 -299516_0 -304131_0 -282197_0 -295812_0 -297889_0 -304501_0 -294076_0 -304435_0 -282198_0 -302892_0 -301431_0 -285848_0_r -283095_0_r -296976_0_r -299880_0_r -285847_0_r -301772_0_r -290716_0_r -290028_0 -290028_0_r</route>
			</leg>
			<activity type="home" link="-290028_0_r" >
			</activity>
		</plan>

		<plan score="122.41416864434194" selected="no">
			<activity type="home" link="-290028_0_r" end_time="07:00:00" >
			</activity>
			<leg mode="car" dep_time="07:00:00" trav_time="00:02:09">
				<route type="links" start_link="-290028_0_r" end_link="-296751_0" trav_time="00:02:09" distance="2197.4448798893177">-290028_0_r -290716_0 -301772_0 -285847_0 -299880_0 -296976_0 -283095_0 -285848_0 -301431_0_r -302892_0_r -282198_0_r -304435_0_r -294076_0_r -304501_0_r -297889_0_r -295812_0_r -282197_0_r -304131_0_r -299516_0_r -300541_0_r -287970_0_r -290281_0_r -296751_0_r -296751_0</route>
			</leg>
			<activity type="work" link="-296751_0" end_time="11:00:00" >
			</activity>
			<leg mode="car" dep_time="11:00:00" trav_time="00:02:24">
				<route type="links" start_link="-296751_0" end_link="-290028_0_r" trav_time="00:02:24" distance="2576.4982932278967">-296751_0 -290281_0 -287970_0 -300541_0 -299516_0 -304131_0 -282197_0 -295812_0 -297889_0 -304501_0 -294076_0 -304435_0 -282198_0 -302892_0 -301431_0 -285848_0_r -283095_0_r -296976_0_r -299880_0_r -285847_0_r -301772_0_r -290716_0_r -290028_0 -290028_0_r</route>
			</leg>
			<activity type="home" link="-290028_0_r" >
			</activity>
		</plan>

		<plan score="122.41416864434194" selected="no">
			<activity type="home" link="-290028_0_r" end_time="07:00:00" >
			</activity>
			<leg mode="car" dep_time="07:00:00" trav_time="00:02:09">
				<route type="links" start_link="-290028_0_r" end_link="-296751_0" trav_time="00:02:09" distance="2197.4448798893177">-290028_0_r -290716_0 -301772_0 -285847_0 -299880_0 -296976_0 -283095_0 -285848_0 -301431_0_r -302892_0_r -282198_0_r -304435_0_r -294076_0_r -304501_0_r -297889_0_r -295812_0_r -282197_0_r -304131_0_r -299516_0_r -300541_0_r -287970_0_r -290281_0_r -296751_0_r -296751_0</route>
			</leg>
			<activity type="work" link="-296751_0" end_time="11:00:00" >
			</activity>
			<leg mode="car" dep_time="11:00:00" trav_time="00:02:24">
				<route type="links" start_link="-296751_0" end_link="-290028_0_r" trav_time="00:02:24" distance="2576.4982932278967">-296751_0 -290281_0 -287970_0 -300541_0 -299516_0 -304131_0 -282197_0 -295812_0 -297889_0 -304501_0 -294076_0 -304435_0 -282198_0 -302892_0 -301431_0 -285848_0_r -283095_0_r -296976_0_r -299880_0_r -285847_0_r -301772_0_r -290716_0_r -290028_0 -290028_0_r</route>
			</leg>
			<activity type="home" link="-290028_0_r" >
			</activity>
		</plan>

		<plan score="122.41416864434194" selected="no">
			<activity type="home" link="-290028_0_r" end_time="07:00:00" >
			</activity>
			<leg mode="car" dep_time="07:00:00" trav_time="00:02:09">
				<route type="links" start_link="-290028_0_r" end_link="-296751_0" trav_time="00:02:09" distance="2197.4448798893177">-290028_0_r -290716_0 -301772_0 -285847_0 -299880_0 -296976_0 -283095_0 -285848_0 -301431_0_r -302892_0_r -282198_0_r -304435_0_r -294076_0_r -304501_0_r -297889_0_r -295812_0_r -282197_0_r -304131_0_r -299516_0_r -300541_0_r -287970_0_r -290281_0_r -296751_0_r -296751_0</route>
			</leg>
			<activity type="work" link="-296751_0" end_time="11:00:00" >
			</activity>
			<leg mode="car" dep_time="11:00:00" trav_time="00:02:24">
				<route type="links" start_link="-296751_0" end_link="-290028_0_r" trav_time="00:02:24" distance="2576.4982932278967">-296751_0 -290281_0 -287970_0 -300541_0 -299516_0 -304131_0 -282197_0 -295812_0 -297889_0 -304501_0 -294076_0 -304435_0 -282198_0 -302892_0 -301431_0 -285848_0_r -283095_0_r -296976_0_r -299880_0_r -285847_0_r -301772_0_r -290716_0_r -290028_0 -290028_0_r</route>
			</leg>
			<activity type="home" link="-290028_0_r" >
			</activity>
		</plan>

		<plan score="122.41416864434194" selected="no">
			<activity type="home" link="-290028_0_r" end_time="07:00:00" >
			</activity>
			<leg mode="car" dep_time="07:00:00" trav_time="00:02:09">
				<route type="links" start_link="-290028_0_r" end_link="-296751_0" trav_time="00:02:09" distance="2197.4448798893177">-290028_0_r -290716_0 -301772_0 -285847_0 -299880_0 -296976_0 -283095_0 -285848_0 -301431_0_r -302892_0_r -282198_0_r -304435_0_r -294076_0_r -304501_0_r -297889_0_r -295812_0_r -282197_0_r -304131_0_r -299516_0_r -300541_0_r -287970_0_r -290281_0_r -296751_0_r -296751_0</route>
			</leg>
			<activity type="work" link="-296751_0" end_time="11:00:00" >
			</activity>
			<leg mode="car" dep_time="11:00:00" trav_time="00:02:24">
				<route type="links" start_link="-296751_0" end_link="-290028_0_r" trav_time="00:02:24" distance="2576.4982932278967">-296751_0 -290281_0 -287970_0 -300541_0 -299516_0 -304131_0 -282197_0 -295812_0 -297889_0 -304501_0 -294076_0 -304435_0 -282198_0 -302892_0 -301431_0 -285848_0_r -283095_0_r -296976_0_r -299880_0_r -285847_0_r -301772_0_r -290716_0_r -290028_0 -290028_0_r</route>
			</leg>
			<activity type="home" link="-290028_0_r" >
			</activity>
		</plan>

		<plan score="122.41416864434194" selected="no">
			<activity type="home" link="-290028_0_r" end_time="07:00:00" >
			</activity>
			<leg mode="car" dep_time="07:00:00" trav_time="00:02:09">
				<route type="links" start_link="-290028_0_r" end_link="-296751_0" trav_time="00:02:09" distance="2197.4448798893177">-290028_0_r -290716_0 -301772_0 -285847_0 -299880_0 -296976_0 -283095_0 -285848_0 -301431_0_r -302892_0_r -282198_0_r -304435_0_r -294076_0_r -304501_0_r -297889_0_r -295812_0_r -282197_0_r -304131_0_r -299516_0_r -300541_0_r -287970_0_r -290281_0_r -296751_0_r -296751_0</route>
			</leg>
			<activity type="work" link="-296751_0" end_time="11:00:00" >
			</activity>
			<leg mode="car" dep_time="11:00:00" trav_time="00:02:24">
				<route type="links" start_link="-296751_0" end_link="-290028_0_r" trav_time="00:02:24" distance="2576.4982932278967">-296751_0 -290281_0 -287970_0 -300541_0 -299516_0 -304131_0 -282197_0 -295812_0 -297889_0 -304501_0 -294076_0 -304435_0 -282198_0 -302892_0 -301431_0 -285848_0_r -283095_0_r -296976_0_r -299880_0_r -285847_0_r -301772_0_r -290716_0_r -290028_0 -290028_0_r</route>
			</leg>
			<activity type="home" link="-290028_0_r" >
			</activity>
		</plan>

		<plan score="122.41416864434194" selected="no">
			<activity type="home" link="-290028_0_r" end_time="07:00:00" >
			</activity>
			<leg mode="car" dep_time="07:00:00" trav_time="00:02:09">
				<route type="links" start_link="-290028_0_r" end_link="-296751_0" trav_time="00:02:09" distance="2197.4448798893177">-290028_0_r -290716_0 -301772_0 -285847_0 -299880_0 -296976_0 -283095_0 -285848_0 -301431_0_r -302892_0_r -282198_0_r -304435_0_r -294076_0_r -304501_0_r -297889_0_r -295812_0_r -282197_0_r -304131_0_r -299516_0_r -300541_0_r -287970_0_r -290281_0_r -296751_0_r -296751_0</route>
			</leg>
			<activity type="work" link="-296751_0" end_time="11:00:00" >
			</activity>
			<leg mode="car" dep_time="11:00:00" trav_time="00:02:24">
				<route type="links" start_link="-296751_0" end_link="-290028_0_r" trav_time="00:02:24" distance="2576.4982932278967">-296751_0 -290281_0 -287970_0 -300541_0 -299516_0 -304131_0 -282197_0 -295812_0 -297889_0 -304501_0 -294076_0 -304435_0 -282198_0 -302892_0 -301431_0 -285848_0_r -283095_0_r -296976_0_r -299880_0_r -285847_0_r -301772_0_r -290716_0_r -290028_0 -290028_0_r</route>
			</leg>
			<activity type="home" link="-290028_0_r" >
			</activity>
		</plan>

		<plan score="122.41416864434194" selected="no">
			<activity type="home" link="-290028_0_r" end_time="07:00:00" >
			</activity>
			<leg mode="car" dep_time="07:00:00" trav_time="00:02:09">
				<route type="links" start_link="-290028_0_r" end_link="-296751_0" trav_time="00:02:09" distance="2197.4448798893177">-290028_0_r -290716_0 -301772_0 -285847_0 -299880_0 -296976_0 -283095_0 -285848_0 -301431_0_r -302892_0_r -282198_0_r -304435_0_r -294076_0_r -304501_0_r -297889_0_r -295812_0_r -282197_0_r -304131_0_r -299516_0_r -300541_0_r -287970_0_r -290281_0_r -296751_0_r -296751_0</route>
			</leg>
			<activity type="work" link="-296751_0" end_time="11:00:00" >
			</activity>
			<leg mode="car" dep_time="11:00:00" trav_time="00:02:24">
				<route type="links" start_link="-296751_0" end_link="-290028_0_r" trav_time="00:02:24" distance="2576.4982932278967">-296751_0 -290281_0 -287970_0 -300541_0 -299516_0 -304131_0 -282197_0 -295812_0 -297889_0 -304501_0 -294076_0 -304435_0 -282198_0 -302892_0 -301431_0 -285848_0_r -283095_0_r -296976_0_r -299880_0_r -285847_0_r -301772_0_r -290716_0_r -290028_0 -290028_0_r</route>
			</leg>
			<activity type="home" link="-290028_0_r" >
			</activity>
		</plan>

		<plan score="122.41416864434194" selected="no">
			<activity type="home" link="-290028_0_r" end_time="07:00:00" >
			</activity>
			<leg mode="car" dep_time="07:00:00" trav_time="00:02:09">
				<route type="links" start_link="-290028_0_r" end_link="-296751_0" trav_time="00:02:09" distance="2197.4448798893177">-290028_0_r -290716_0 -301772_0 -285847_0 -299880_0 -296976_0 -283095_0 -285848_0 -301431_0_r -302892_0_r -282198_0_r -304435_0_r -294076_0_r -304501_0_r -297889_0_r -295812_0_r -282197_0_r -304131_0_r -299516_0_r -300541_0_r -287970_0_r -290281_0_r -296751_0_r -296751_0</route>
			</leg>
			<activity type="work" link="-296751_0" end_time="11:00:00" >
			</activity>
			<leg mode="car" dep_time="11:00:00" trav_time="00:02:24">
				<route type="links" start_link="-296751_0" end_link="-290028_0_r" trav_time="00:02:24" distance="2576.4982932278967">-296751_0 -290281_0 -287970_0 -300541_0 -299516_0 -304131_0 -282197_0 -295812_0 -297889_0 -304501_0 -294076_0 -304435_0 -282198_0 -302892_0 -301431_0 -285848_0_r -283095_0_r -296976_0_r -299880_0_r -285847_0_r -301772_0_r -290716_0_r -290028_0 -290028_0_r</route>
			</leg>
			<activity type="home" link="-290028_0_r" >
			</activity>
		</plan>

		<plan score="122.41416864434194" selected="no">
			<activity type="home" link="-290028_0_r" end_time="07:00:00" >
			</activity>
			<leg mode="car" dep_time="07:00:00" trav_time="00:02:09">
				<route type="links" start_link="-290028_0_r" end_link="-296751_0" trav_time="00:02:09" distance="2197.4448798893177">-290028_0_r -290716_0 -301772_0 -285847_0 -299880_0 -296976_0 -283095_0 -285848_0 -301431_0_r -302892_0_r -282198_0_r -304435_0_r -294076_0_r -304501_0_r -297889_0_r -295812_0_r -282197_0_r -304131_0_r -299516_0_r -300541_0_r -287970_0_r -290281_0_r -296751_0_r -296751_0</route>
			</leg>
			<activity type="work" link="-296751_0" end_time="11:00:00" >
			</activity>
			<leg mode="car" dep_time="11:00:00" trav_time="00:02:24">
				<route type="links" start_link="-296751_0" end_link="-290028_0_r" trav_time="00:02:24" distance="2576.4982932278967">-296751_0 -290281_0 -287970_0 -300541_0 -299516_0 -304131_0 -282197_0 -295812_0 -297889_0 -304501_0 -294076_0 -304435_0 -282198_0 -302892_0 -301431_0 -285848_0_r -283095_0_r -296976_0_r -299880_0_r -285847_0_r -301772_0_r -290716_0_r -290028_0 -290028_0_r</route>
			</leg>
			<activity type="home" link="-290028_0_r" >
			</activity>
		</plan>

		<plan score="122.41416864434194" selected="no">
			<activity type="home" link="-290028_0_r" end_time="07:00:00" >
			</activity>
			<leg mode="car" dep_time="07:00:00" trav_time="00:02:09">
				<route type="links" start_link="-290028_0_r" end_link="-296751_0" trav_time="00:02:09" distance="2197.4448798893177">-290028_0_r -290716_0 -301772_0 -285847_0 -299880_0 -296976_0 -283095_0 -285848_0 -301431_0_r -302892_0_r -282198_0_r -304435_0_r -294076_0_r -304501_0_r -297889_0_r -295812_0_r -282197_0_r -304131_0_r -299516_0_r -300541_0_r -287970_0_r -290281_0_r -296751_0_r -296751_0</route>
			</leg>
			<activity type="work" link="-296751_0" end_time="11:00:00" >
			</activity>
			<leg mode="car" dep_time="11:00:00" trav_time="00:02:24">
				<route type="links" start_link="-296751_0" end_link="-290028_0_r" trav_time="00:02:24" distance="2576.4982932278967">-296751_0 -290281_0 -287970_0 -300541_0 -299516_0 -304131_0 -282197_0 -295812_0 -297889_0 -304501_0 -294076_0 -304435_0 -282198_0 -302892_0 -301431_0 -285848_0_r -283095_0_r -296976_0_r -299880_0_r -285847_0_r -301772_0_r -290716_0_r -290028_0 -290028_0_r</route>
			</leg>
			<activity type="home" link="-290028_0_r" >
			</activity>
		</plan>

		<plan score="122.41416864434194" selected="no">
			<activity type="home" link="-290028_0_r" end_time="07:00:00" >
			</activity>
			<leg mode="car" dep_time="07:00:00" trav_time="00:02:09">
				<route type="links" start_link="-290028_0_r" end_link="-296751_0" trav_time="00:02:09" distance="2197.4448798893177">-290028_0_r -290716_0 -301772_0 -285847_0 -299880_0 -296976_0 -283095_0 -285848_0 -301431_0_r -302892_0_r -282198_0_r -304435_0_r -294076_0_r -304501_0_r -297889_0_r -295812_0_r -282197_0_r -304131_0_r -299516_0_r -300541_0_r -287970_0_r -290281_0_r -296751_0_r -296751_0</route>
			</leg>
			<activity type="work" link="-296751_0" end_time="11:00:00" >
			</activity>
			<leg mode="car" dep_time="11:00:00" trav_time="00:02:24">
				<route type="links" start_link="-296751_0" end_link="-290028_0_r" trav_time="00:02:24" distance="2576.4982932278967">-296751_0 -290281_0 -287970_0 -300541_0 -299516_0 -304131_0 -282197_0 -295812_0 -297889_0 -304501_0 -294076_0 -304435_0 -282198_0 -302892_0 -301431_0 -285848_0_r -283095_0_r -296976_0_r -299880_0_r -285847_0_r -301772_0_r -290716_0_r -290028_0 -290028_0_r</route>
			</leg>
			<activity type="home" link="-290028_0_r" >
			</activity>
		</plan>

		<plan score="122.41416864434194" selected="no">
			<activity type="home" link="-290028_0_r" end_time="07:00:00" >
			</activity>
			<leg mode="car" dep_time="07:00:00" trav_time="00:02:09">
				<route type="links" start_link="-290028_0_r" end_link="-296751_0" trav_time="00:02:09" distance="2197.4448798893177">-290028_0_r -290716_0 -301772_0 -285847_0 -299880_0 -296976_0 -283095_0 -285848_0 -301431_0_r -302892_0_r -282198_0_r -304435_0_r -294076_0_r -304501_0_r -297889_0_r -295812_0_r -282197_0_r -304131_0_r -299516_0_r -300541_0_r -287970_0_r -290281_0_r -296751_0_r -296751_0</route>
			</leg>
			<activity type="work" link="-296751_0" end_time="11:00:00" >
			</activity>
			<leg mode="car" dep_time="11:00:00" trav_time="00:02:24">
				<route type="links" start_link="-296751_0" end_link="-290028_0_r" trav_time="00:02:24" distance="2576.4982932278967">-296751_0 -290281_0 -287970_0 -300541_0 -299516_0 -304131_0 -282197_0 -295812_0 -297889_0 -304501_0 -294076_0 -304435_0 -282198_0 -302892_0 -301431_0 -285848_0_r -283095_0_r -296976_0_r -299880_0_r -285847_0_r -301772_0_r -290716_0_r -290028_0 -290028_0_r</route>
			</leg>
			<activity type="home" link="-290028_0_r" >
			</activity>
		</plan>

	</person>

<!-- ====================================================================== -->

	<person id="1">
		<plan score="-398.80489096658414" selected="no">
			<activity type="home" link="-295599_0" end_time="07:00:01" >
			</activity>
			<leg mode="car">
				<route type="links" start_link="-295599_0" end_link="-283923_0" trav_time="undefined" distance="46.123284418673066">-295599_0 -283923_0</route>
			</leg>
			<activity type="work" link="-283923_0" end_time="11:00:01" >
			</activity>
			<leg mode="car">
				<route type="links" start_link="-283923_0" end_link="-295599_0" trav_time="undefined" distance="131.40446516650553">-283923_0 -295599_0</route>
			</leg>
			<activity type="home" link="-295599_0" >
			</activity>
		</plan>

		<plan score="122.20234888649198" selected="yes">
			<activity type="home" link="-295599_0" end_time="07:00:01" >
			</activity>
			<leg mode="car" dep_time="07:00:01" trav_time="00:02:25">
				<route type="links" start_link="-295599_0" end_link="-283923_0" trav_time="00:02:25" distance="2878.821350424199">-295599_0 -282415_0 -290988_0 -286546_0 -295284_0 -288159_0 -302178_0 -285176_0 -286655_0 -299049_0 -283919_0 -297818_0 -298835_0 -291559_0 -298102_0 -300196_0 -286678_0 -292298_0 -291009_0 -286679_0 -301030_0 -283921_0 -289886_0 -293778_0 -283922_0 -304265_0 -301526_0 -303561_0 -283923_0</route>
			</leg>
			<activity type="work" link="-283923_0" end_time="11:00:01" >
			</activity>
			<leg mode="car" dep_time="11:00:01" trav_time="00:02:34">
				<route type="links" start_link="-283923_0" end_link="-295599_0" trav_time="00:02:34" distance="3164.458024305515">-283923_0 -288220_0_r -282418_0_r -301526_0_r -304265_0_r -283922_0_r -293778_0_r -289886_0_r -283921_0_r -301030_0_r -286679_0_r -291009_0_r -292298_0_r -286678_0_r -300196_0_r -298102_0_r -291559_0_r -298835_0_r -297818_0_r -283919_0_r -299049_0_r -286655_0_r -285176_0_r -302178_0_r -288159_0_r -295284_0_r -286546_0_r -290988_0_r -298096_0_r -288282_0_r -295599_0</route>
			</leg>
			<activity type="home" link="-295599_0" >
			</activity>
		</plan>

		<plan score="122.18456342576731" selected="no">
			<activity type="home" link="-295599_0" end_time="07:00:01" >
			</activity>
			<leg mode="car" dep_time="07:00:01" trav_time="00:02:39">
				<route type="links" start_link="-295599_0" end_link="-283923_0" trav_time="00:02:39" distance="2864.848595964628">-295599_0 -282415_0 -293457_0 -303405_0 -282416_0 -303669_0 -293772_0 -281465_0 -283900_0 -286655_0 -299049_0 -283919_0 -297818_0 -298835_0 -291559_0 -298102_0 -300196_0 -286678_0 -292298_0 -291009_0 -286679_0 -301030_0 -283921_0 -289886_0 -293778_0 -283922_0 -304265_0 -301526_0 -303561_0 -283923_0</route>
			</leg>
			<activity type="work" link="-283923_0" end_time="11:00:01" >
			</activity>
			<leg mode="car" dep_time="11:00:01" trav_time="00:02:47">
				<route type="links" start_link="-283923_0" end_link="-295599_0" trav_time="00:02:47" distance="3151.977570975267">-283923_0 -288220_0_r -282418_0_r -301526_0_r -304265_0_r -283922_0_r -293778_0_r -289886_0_r -283921_0_r -301030_0_r -286679_0_r -291009_0_r -292298_0_r -286678_0_r -300196_0_r -298102_0_r -291559_0_r -298835_0_r -297818_0_r -283919_0_r -299049_0_r -286655_0_r -283900_0_r -281465_0_r -293772_0_r -300189_0_r -288283_0_r -282440_0_r -293462_0_r -292665_0_r -288282_0_r -295599_0</route>
			</leg>
			<activity type="home" link="-295599_0" >
			</activity>
		</plan>

		<plan score="122.18456342576731" selected="no">
			<activity type="home" link="-295599_0" end_time="07:00:01" >
			</activity>
			<leg mode="car" dep_time="07:00:01" trav_time="00:02:39">
				<route type="links" start_link="-295599_0" end_link="-283923_0" trav_time="00:02:39" distance="2864.848595964628">-295599_0 -282415_0 -293457_0 -303405_0 -282416_0 -303669_0 -293772_0 -281465_0 -283900_0 -286655_0 -299049_0 -283919_0 -297818_0 -298835_0 -291559_0 -298102_0 -300196_0 -286678_0 -292298_0 -291009_0 -286679_0 -301030_0 -283921_0 -289886_0 -293778_0 -283922_0 -304265_0 -301526_0 -303561_0 -283923_0</route>
			</leg>
			<activity type="work" link="-283923_0" end_time="11:00:01" >
			</activity>
			<leg mode="car" dep_time="11:00:01" trav_time="00:02:47">
				<route type="links" start_link="-283923_0" end_link="-295599_0" trav_time="00:02:47" distance="3151.977570975267">-283923_0 -288220_0_r -282418_0_r -301526_0_r -304265_0_r -283922_0_r -293778_0_r -289886_0_r -283921_0_r -301030_0_r -286679_0_r -291009_0_r -292298_0_r -286678_0_r -300196_0_r -298102_0_r -291559_0_r -298835_0_r -297818_0_r -283919_0_r -299049_0_r -286655_0_r -283900_0_r -281465_0_r -293772_0_r -300189_0_r -288283_0_r -282440_0_r -293462_0_r -292665_0_r -288282_0_r -295599_0</route>
			</leg>
			<activity type="home" link="-295599_0" >
			</activity>
		</plan>

		<plan score="122.18456342576731" selected="no">
			<activity type="home" link="-295599_0" end_time="07:00:01" >
			</activity>
			<leg mode="car" dep_time="07:00:01" trav_time="00:02:39">
				<route type="links" start_link="-295599_0" end_link="-283923_0" trav_time="00:02:39" distance="2864.848595964628">-295599_0 -282415_0 -293457_0 -303405_0 -282416_0 -303669_0 -293772_0 -281465_0 -283900_0 -286655_0 -299049_0 -283919_0 -297818_0 -298835_0 -291559_0 -298102_0 -300196_0 -286678_0 -292298_0 -291009_0 -286679_0 -301030_0 -283921_0 -289886_0 -293778_0 -283922_0 -304265_0 -301526_0 -303561_0 -283923_0</route>
			</leg>
			<activity type="work" link="-283923_0" end_time="11:00:01" >
			</activity>
			<leg mode="car" dep_time="11:00:01" trav_time="00:02:47">
				<route type="links" start_link="-283923_0" end_link="-295599_0" trav_time="00:02:47" distance="3151.977570975267">-283923_0 -288220_0_r -282418_0_r -301526_0_r -304265_0_r -283922_0_r -293778_0_r -289886_0_r -283921_0_r -301030_0_r -286679_0_r -291009_0_r -292298_0_r -286678_0_r -300196_0_r -298102_0_r -291559_0_r -298835_0_r -297818_0_r -283919_0_r -299049_0_r -286655_0_r -283900_0_r -281465_0_r -293772_0_r -300189_0_r -288283_0_r -282440_0_r -293462_0_r -292665_0_r -288282_0_r -295599_0</route>
			</leg>
			<activity type="home" link="-295599_0" >
			</activity>
		</plan>

		<plan score="122.18456342576731" selected="no">
			<activity type="home" link="-295599_0" end_time="07:00:01" >
			</activity>
			<leg mode="car" dep_time="07:00:01" trav_time="00:02:39">
				<route type="links" start_link="-295599_0" end_link="-283923_0" trav_time="00:02:39" distance="2864.848595964628">-295599_0 -282415_0 -293457_0 -303405_0 -282416_0 -303669_0 -293772_0 -281465_0 -283900_0 -286655_0 -299049_0 -283919_0 -297818_0 -298835_0 -291559_0 -298102_0 -300196_0 -286678_0 -292298_0 -291009_0 -286679_0 -301030_0 -283921_0 -289886_0 -293778_0 -283922_0 -304265_0 -301526_0 -303561_0 -283923_0</route>
			</leg>
			<activity type="work" link="-283923_0" end_time="11:00:01" >
			</activity>
			<leg mode="car" dep_time="11:00:01" trav_time="00:02:47">
				<route type="links" start_link="-283923_0" end_link="-295599_0" trav_time="00:02:47" distance="3151.977570975267">-283923_0 -288220_0_r -282418_0_r -301526_0_r -304265_0_r -283922_0_r -293778_0_r -289886_0_r -283921_0_r -301030_0_r -286679_0_r -291009_0_r -292298_0_r -286678_0_r -300196_0_r -298102_0_r -291559_0_r -298835_0_r -297818_0_r -283919_0_r -299049_0_r -286655_0_r -283900_0_r -281465_0_r -293772_0_r -300189_0_r -288283_0_r -282440_0_r -293462_0_r -292665_0_r -288282_0_r -295599_0</route>
			</leg>
			<activity type="home" link="-295599_0" >
			</activity>
		</plan>

		<plan score="122.18456342576731" selected="no">
			<activity type="home" link="-295599_0" end_time="07:00:01" >
			</activity>
			<leg mode="car" dep_time="07:00:01" trav_time="00:02:39">
				<route type="links" start_link="-295599_0" end_link="-283923_0" trav_time="00:02:39" distance="2864.848595964628">-295599_0 -282415_0 -293457_0 -303405_0 -282416_0 -303669_0 -293772_0 -281465_0 -283900_0 -286655_0 -299049_0 -283919_0 -297818_0 -298835_0 -291559_0 -298102_0 -300196_0 -286678_0 -292298_0 -291009_0 -286679_0 -301030_0 -283921_0 -289886_0 -293778_0 -283922_0 -304265_0 -301526_0 -303561_0 -283923_0</route>
			</leg>
			<activity type="work" link="-283923_0" end_time="11:00:01" >
			</activity>
			<leg mode="car" dep_time="11:00:01" trav_time="00:02:47">
				<route type="links" start_link="-283923_0" end_link="-295599_0" trav_time="00:02:47" distance="3151.977570975267">-283923_0 -288220_0_r -282418_0_r -301526_0_r -304265_0_r -283922_0_r -293778_0_r -289886_0_r -283921_0_r -301030_0_r -286679_0_r -291009_0_r -292298_0_r -286678_0_r -300196_0_r -298102_0_r -291559_0_r -298835_0_r -297818_0_r -283919_0_r -299049_0_r -286655_0_r -283900_0_r -281465_0_r -293772_0_r -300189_0_r -288283_0_r -282440_0_r -293462_0_r -292665_0_r -288282_0_r -295599_0</route>
			</leg>
			<activity type="home" link="-295599_0" >
			</activity>
		</plan>

		<plan score="122.18456342576731" selected="no">
			<activity type="home" link="-295599_0" end_time="07:00:01" >
			</activity>
			<leg mode="car" dep_time="07:00:01" trav_time="00:02:39">
				<route type="links" start_link="-295599_0" end_link="-283923_0" trav_time="00:02:39" distance="2864.848595964628">-295599_0 -282415_0 -293457_0 -303405_0 -282416_0 -303669_0 -293772_0 -281465_0 -283900_0 -286655_0 -299049_0 -283919_0 -297818_0 -298835_0 -291559_0 -298102_0 -300196_0 -286678_0 -292298_0 -291009_0 -286679_0 -301030_0 -283921_0 -289886_0 -293778_0 -283922_0 -304265_0 -301526_0 -303561_0 -283923_0</route>
			</leg>
			<activity type="work" link="-283923_0" end_time="11:00:01" >
			</activity>
			<leg mode="car" dep_time="11:00:01" trav_time="00:02:47">
				<route type="links" start_link="-283923_0" end_link="-295599_0" trav_time="00:02:47" distance="3151.977570975267">-283923_0 -288220_0_r -282418_0_r -301526_0_r -304265_0_r -283922_0_r -293778_0_r -289886_0_r -283921_0_r -301030_0_r -286679_0_r -291009_0_r -292298_0_r -286678_0_r -300196_0_r -298102_0_r -291559_0_r -298835_0_r -297818_0_r -283919_0_r -299049_0_r -286655_0_r -283900_0_r -281465_0_r -293772_0_r -300189_0_r -288283_0_r -282440_0_r -293462_0_r -292665_0_r -288282_0_r -295599_0</route>
			</leg>
			<activity type="home" link="-295599_0" >
			</activity>
		</plan>

		<plan score="122.18456342576731" selected="no">
			<activity type="home" link="-295599_0" end_time="07:00:01" >
			</activity>
			<leg mode="car" dep_time="07:00:01" trav_time="00:02:39">
				<route type="links" start_link="-295599_0" end_link="-283923_0" trav_time="00:02:39" distance="2864.848595964628">-295599_0 -282415_0 -293457_0 -303405_0 -282416_0 -303669_0 -293772_0 -281465_0 -283900_0 -286655_0 -299049_0 -283919_0 -297818_0 -298835_0 -291559_0 -298102_0 -300196_0 -286678_0 -292298_0 -291009_0 -286679_0 -301030_0 -283921_0 -289886_0 -293778_0 -283922_0 -304265_0 -301526_0 -303561_0 -283923_0</route>
			</leg>
			<activity type="work" link="-283923_0" end_time="11:00:01" >
			</activity>
			<leg mode="car" dep_time="11:00:01" trav_time="00:02:47">
				<route type="links" start_link="-283923_0" end_link="-295599_0" trav_time="00:02:47" distance="3151.977570975267">-283923_0 -288220_0_r -282418_0_r -301526_0_r -304265_0_r -283922_0_r -293778_0_r -289886_0_r -283921_0_r -301030_0_r -286679_0_r -291009_0_r -292298_0_r -286678_0_r -300196_0_r -298102_0_r -291559_0_r -298835_0_r -297818_0_r -283919_0_r -299049_0_r -286655_0_r -283900_0_r -281465_0_r -293772_0_r -300189_0_r -288283_0_r -282440_0_r -293462_0_r -292665_0_r -288282_0_r -295599_0</route>
			</leg>
			<activity type="home" link="-295599_0" >
			</activity>
		</plan>

		<plan score="122.18456342576731" selected="no">
			<activity type="home" link="-295599_0" end_time="07:00:01" >
			</activity>
			<leg mode="car" dep_time="07:00:01" trav_time="00:02:39">
				<route type="links" start_link="-295599_0" end_link="-283923_0" trav_time="00:02:39" distance="2864.848595964628">-295599_0 -282415_0 -293457_0 -303405_0 -282416_0 -303669_0 -293772_0 -281465_0 -283900_0 -286655_0 -299049_0 -283919_0 -297818_0 -298835_0 -291559_0 -298102_0 -300196_0 -286678_0 -292298_0 -291009_0 -286679_0 -301030_0 -283921_0 -289886_0 -293778_0 -283922_0 -304265_0 -301526_0 -303561_0 -283923_0</route>
			</leg>
			<activity type="work" link="-283923_0" end_time="11:00:01" >
			</activity>
			<leg mode="car" dep_time="11:00:01" trav_time="00:02:47">
				<route type="links" start_link="-283923_0" end_link="-295599_0" trav_time="00:02:47" distance="3151.977570975267">-283923_0 -288220_0_r -282418_0_r -301526_0_r -304265_0_r -283922_0_r -293778_0_r -289886_0_r -283921_0_r -301030_0_r -286679_0_r -291009_0_r -292298_0_r -286678_0_r -300196_0_r -298102_0_r -291559_0_r -298835_0_r -297818_0_r -283919_0_r -299049_0_r -286655_0_r -283900_0_r -281465_0_r -293772_0_r -300189_0_r -288283_0_r -282440_0_r -293462_0_r -292665_0_r -288282_0_r -295599_0</route>
			</leg>
			<activity type="home" link="-295599_0" >
			</activity>
		</plan>

		<plan score="122.18456342576731" selected="no">
			<activity type="home" link="-295599_0" end_time="07:00:01" >
			</activity>
			<leg mode="car" dep_time="07:00:01" trav_time="00:02:39">
				<route type="links" start_link="-295599_0" end_link="-283923_0" trav_time="00:02:39" distance="2864.848595964628">-295599_0 -282415_0 -293457_0 -303405_0 -282416_0 -303669_0 -293772_0 -281465_0 -283900_0 -286655_0 -299049_0 -283919_0 -297818_0 -298835_0 -291559_0 -298102_0 -300196_0 -286678_0 -292298_0 -291009_0 -286679_0 -301030_0 -283921_0 -289886_0 -293778_0 -283922_0 -304265_0 -301526_0 -303561_0 -283923_0</route>
			</leg>
			<activity type="work" link="-283923_0" end_time="11:00:01" >
			</activity>
			<leg mode="car" dep_time="11:00:01" trav_time="00:02:47">
				<route type="links" start_link="-283923_0" end_link="-295599_0" trav_time="00:02:47" distance="3151.977570975267">-283923_0 -288220_0_r -282418_0_r -301526_0_r -304265_0_r -283922_0_r -293778_0_r -289886_0_r -283921_0_r -301030_0_r -286679_0_r -291009_0_r -292298_0_r -286678_0_r -300196_0_r -298102_0_r -291559_0_r -298835_0_r -297818_0_r -283919_0_r -299049_0_r -286655_0_r -283900_0_r -281465_0_r -293772_0_r -300189_0_r -288283_0_r -282440_0_r -293462_0_r -292665_0_r -288282_0_r -295599_0</route>
			</leg>
			<activity type="home" link="-295599_0" >
			</activity>
		</plan>

		<plan score="122.18456342576731" selected="no">
			<activity type="home" link="-295599_0" end_time="07:00:01" >
			</activity>
			<leg mode="car" dep_time="07:00:01" trav_time="00:02:39">
				<route type="links" start_link="-295599_0" end_link="-283923_0" trav_time="00:02:39" distance="2864.848595964628">-295599_0 -282415_0 -293457_0 -303405_0 -282416_0 -303669_0 -293772_0 -281465_0 -283900_0 -286655_0 -299049_0 -283919_0 -297818_0 -298835_0 -291559_0 -298102_0 -300196_0 -286678_0 -292298_0 -291009_0 -286679_0 -301030_0 -283921_0 -289886_0 -293778_0 -283922_0 -304265_0 -301526_0 -303561_0 -283923_0</route>
			</leg>
			<activity type="work" link="-283923_0" end_time="11:00:01" >
			</activity>
			<leg mode="car" dep_time="11:00:01" trav_time="00:02:47">
				<route type="links" start_link="-283923_0" end_link="-295599_0" trav_time="00:02:47" distance="3151.977570975267">-283923_0 -288220_0_r -282418_0_r -301526_0_r -304265_0_r -283922_0_r -293778_0_r -289886_0_r -283921_0_r -301030_0_r -286679_0_r -291009_0_r -292298_0_r -286678_0_r -300196_0_r -298102_0_r -291559_0_r -298835_0_r -297818_0_r -283919_0_r -299049_0_r -286655_0_r -283900_0_r -281465_0_r -293772_0_r -300189_0_r -288283_0_r -282440_0_r -293462_0_r -292665_0_r -288282_0_r -295599_0</route>
			</leg>
			<activity type="home" link="-295599_0" >
			</activity>
		</plan>

		<plan score="122.18456342576731" selected="no">
			<activity type="home" link="-295599_0" end_time="07:00:01" >
			</activity>
			<leg mode="car" dep_time="07:00:01" trav_time="00:02:39">
				<route type="links" start_link="-295599_0" end_link="-283923_0" trav_time="00:02:39" distance="2864.848595964628">-295599_0 -282415_0 -293457_0 -303405_0 -282416_0 -303669_0 -293772_0 -281465_0 -283900_0 -286655_0 -299049_0 -283919_0 -297818_0 -298835_0 -291559_0 -298102_0 -300196_0 -286678_0 -292298_0 -291009_0 -286679_0 -301030_0 -283921_0 -289886_0 -293778_0 -283922_0 -304265_0 -301526_0 -303561_0 -283923_0</route>
			</leg>
			<activity type="work" link="-283923_0" end_time="11:00:01" >
			</activity>
			<leg mode="car" dep_time="11:00:01" trav_time="00:02:47">
				<route type="links" start_link="-283923_0" end_link="-295599_0" trav_time="00:02:47" distance="3151.977570975267">-283923_0 -288220_0_r -282418_0_r -301526_0_r -304265_0_r -283922_0_r -293778_0_r -289886_0_r -283921_0_r -301030_0_r -286679_0_r -291009_0_r -292298_0_r -286678_0_r -300196_0_r -298102_0_r -291559_0_r -298835_0_r -297818_0_r -283919_0_r -299049_0_r -286655_0_r -283900_0_r -281465_0_r -293772_0_r -300189_0_r -288283_0_r -282440_0_r -293462_0_r -292665_0_r -288282_0_r -295599_0</route>
			</leg>
			<activity type="home" link="-295599_0" >
			</activity>
		</plan>

		<plan score="122.18456342576731" selected="no">
			<activity type="home" link="-295599_0" end_time="07:00:01" >
			</activity>
			<leg mode="car" dep_time="07:00:01" trav_time="00:02:39">
				<route type="links" start_link="-295599_0" end_link="-283923_0" trav_time="00:02:39" distance="2864.848595964628">-295599_0 -282415_0 -293457_0 -303405_0 -282416_0 -303669_0 -293772_0 -281465_0 -283900_0 -286655_0 -299049_0 -283919_0 -297818_0 -298835_0 -291559_0 -298102_0 -300196_0 -286678_0 -292298_0 -291009_0 -286679_0 -301030_0 -283921_0 -289886_0 -293778_0 -283922_0 -304265_0 -301526_0 -303561_0 -283923_0</route>
			</leg>
			<activity type="work" link="-283923_0" end_time="11:00:01" >
			</activity>
			<leg mode="car" dep_time="11:00:01" trav_time="00:02:47">
				<route type="links" start_link="-283923_0" end_link="-295599_0" trav_time="00:02:47" distance="3151.977570975267">-283923_0 -288220_0_r -282418_0_r -301526_0_r -304265_0_r -283922_0_r -293778_0_r -289886_0_r -283921_0_r -301030_0_r -286679_0_r -291009_0_r -292298_0_r -286678_0_r -300196_0_r -298102_0_r -291559_0_r -298835_0_r -297818_0_r -283919_0_r -299049_0_r -286655_0_r -283900_0_r -281465_0_r -293772_0_r -300189_0_r -288283_0_r -282440_0_r -293462_0_r -292665_0_r -288282_0_r -295599_0</route>
			</leg>
			<activity type="home" link="-295599_0" >
			</activity>
		</plan>

		<plan score="122.18456342576731" selected="no">
			<activity type="home" link="-295599_0" end_time="07:00:01" >
			</activity>
			<leg mode="car" dep_time="07:00:01" trav_time="00:02:39">
				<route type="links" start_link="-295599_0" end_link="-283923_0" trav_time="00:02:39" distance="2864.848595964628">-295599_0 -282415_0 -293457_0 -303405_0 -282416_0 -303669_0 -293772_0 -281465_0 -283900_0 -286655_0 -299049_0 -283919_0 -297818_0 -298835_0 -291559_0 -298102_0 -300196_0 -286678_0 -292298_0 -291009_0 -286679_0 -301030_0 -283921_0 -289886_0 -293778_0 -283922_0 -304265_0 -301526_0 -303561_0 -283923_0</route>
			</leg>
			<activity type="work" link="-283923_0" end_time="11:00:01" >
			</activity>
			<leg mode="car" dep_time="11:00:01" trav_time="00:02:47">
				<route type="links" start_link="-283923_0" end_link="-295599_0" trav_time="00:02:47" distance="3151.977570975267">-283923_0 -288220_0_r -282418_0_r -301526_0_r -304265_0_r -283922_0_r -293778_0_r -289886_0_r -283921_0_r -301030_0_r -286679_0_r -291009_0_r -292298_0_r -286678_0_r -300196_0_r -298102_0_r -291559_0_r -298835_0_r -297818_0_r -283919_0_r -299049_0_r -286655_0_r -283900_0_r -281465_0_r -293772_0_r -300189_0_r -288283_0_r -282440_0_r -293462_0_r -292665_0_r -288282_0_r -295599_0</route>
			</leg>
			<activity type="home" link="-295599_0" >
			</activity>
		</plan>

		<plan score="122.18456342576731" selected="no">
			<activity type="home" link="-295599_0" end_time="07:00:01" >
			</activity>
			<leg mode="car" dep_time="07:00:01" trav_time="00:02:39">
				<route type="links" start_link="-295599_0" end_link="-283923_0" trav_time="00:02:39" distance="2864.848595964628">-295599_0 -282415_0 -293457_0 -303405_0 -282416_0 -303669_0 -293772_0 -281465_0 -283900_0 -286655_0 -299049_0 -283919_0 -297818_0 -298835_0 -291559_0 -298102_0 -300196_0 -286678_0 -292298_0 -291009_0 -286679_0 -301030_0 -283921_0 -289886_0 -293778_0 -283922_0 -304265_0 -301526_0 -303561_0 -283923_0</route>
			</leg>
			<activity type="work" link="-283923_0" end_time="11:00:01" >
			</activity>
			<leg mode="car" dep_time="11:00:01" trav_time="00:02:47">
				<route type="links" start_link="-283923_0" end_link="-295599_0" trav_time="00:02:47" distance="3151.977570975267">-283923_0 -288220_0_r -282418_0_r -301526_0_r -304265_0_r -283922_0_r -293778_0_r -289886_0_r -283921_0_r -301030_0_r -286679_0_r -291009_0_r -292298_0_r -286678_0_r -300196_0_r -298102_0_r -291559_0_r -298835_0_r -297818_0_r -283919_0_r -299049_0_r -286655_0_r -283900_0_r -281465_0_r -293772_0_r -300189_0_r -288283_0_r -282440_0_r -293462_0_r -292665_0_r -288282_0_r -295599_0</route>
			</leg>
			<activity type="home" link="-295599_0" >
			</activity>
		</plan>

		<plan score="122.18456342576731" selected="no">
			<activity type="home" link="-295599_0" end_time="07:00:01" >
			</activity>
			<leg mode="car" dep_time="07:00:01" trav_time="00:02:39">
				<route type="links" start_link="-295599_0" end_link="-283923_0" trav_time="00:02:39" distance="2864.848595964628">-295599_0 -282415_0 -293457_0 -303405_0 -282416_0 -303669_0 -293772_0 -281465_0 -283900_0 -286655_0 -299049_0 -283919_0 -297818_0 -298835_0 -291559_0 -298102_0 -300196_0 -286678_0 -292298_0 -291009_0 -286679_0 -301030_0 -283921_0 -289886_0 -293778_0 -283922_0 -304265_0 -301526_0 -303561_0 -283923_0</route>
			</leg>
			<activity type="work" link="-283923_0" end_time="11:00:01" >
			</activity>
			<leg mode="car" dep_time="11:00:01" trav_time="00:02:47">
				<route type="links" start_link="-283923_0" end_link="-295599_0" trav_time="00:02:47" distance="3151.977570975267">-283923_0 -288220_0_r -282418_0_r -301526_0_r -304265_0_r -283922_0_r -293778_0_r -289886_0_r -283921_0_r -301030_0_r -286679_0_r -291009_0_r -292298_0_r -286678_0_r -300196_0_r -298102_0_r -291559_0_r -298835_0_r -297818_0_r -283919_0_r -299049_0_r -286655_0_r -283900_0_r -281465_0_r -293772_0_r -300189_0_r -288283_0_r -282440_0_r -293462_0_r -292665_0_r -288282_0_r -295599_0</route>
			</leg>
			<activity type="home" link="-295599_0" >
			</activity>
		</plan>

		<plan score="122.18456342576731" selected="no">
			<activity type="home" link="-295599_0" end_time="07:00:01" >
			</activity>
			<leg mode="car" dep_time="07:00:01" trav_time="00:02:39">
				<route type="links" start_link="-295599_0" end_link="-283923_0" trav_time="00:02:39" distance="2864.848595964628">-295599_0 -282415_0 -293457_0 -303405_0 -282416_0 -303669_0 -293772_0 -281465_0 -283900_0 -286655_0 -299049_0 -283919_0 -297818_0 -298835_0 -291559_0 -298102_0 -300196_0 -286678_0 -292298_0 -291009_0 -286679_0 -301030_0 -283921_0 -289886_0 -293778_0 -283922_0 -304265_0 -301526_0 -303561_0 -283923_0</route>
			</leg>
			<activity type="work" link="-283923_0" end_time="11:00:01" >
			</activity>
			<leg mode="car" dep_time="11:00:01" trav_time="00:02:47">
				<route type="links" start_link="-283923_0" end_link="-295599_0" trav_time="00:02:47" distance="3151.977570975267">-283923_0 -288220_0_r -282418_0_r -301526_0_r -304265_0_r -283922_0_r -293778_0_r -289886_0_r -283921_0_r -301030_0_r -286679_0_r -291009_0_r -292298_0_r -286678_0_r -300196_0_r -298102_0_r -291559_0_r -298835_0_r -297818_0_r -283919_0_r -299049_0_r -286655_0_r -283900_0_r -281465_0_r -293772_0_r -300189_0_r -288283_0_r -282440_0_r -293462_0_r -292665_0_r -288282_0_r -295599_0</route>
			</leg>
			<activity type="home" link="-295599_0" >
			</activity>
		</plan>

		<plan score="122.18456342576731" selected="no">
			<activity type="home" link="-295599_0" end_time="07:00:01" >
			</activity>
			<leg mode="car" dep_time="07:00:01" trav_time="00:02:39">
				<route type="links" start_link="-295599_0" end_link="-283923_0" trav_time="00:02:39" distance="2864.848595964628">-295599_0 -282415_0 -293457_0 -303405_0 -282416_0 -303669_0 -293772_0 -281465_0 -283900_0 -286655_0 -299049_0 -283919_0 -297818_0 -298835_0 -291559_0 -298102_0 -300196_0 -286678_0 -292298_0 -291009_0 -286679_0 -301030_0 -283921_0 -289886_0 -293778_0 -283922_0 -304265_0 -301526_0 -303561_0 -283923_0</route>
			</leg>
			<activity type="work" link="-283923_0" end_time="11:00:01" >
			</activity>
			<leg mode="car" dep_time="11:00:01" trav_time="00:02:47">
				<route type="links" start_link="-283923_0" end_link="-295599_0" trav_time="00:02:47" distance="3151.977570975267">-283923_0 -288220_0_r -282418_0_r -301526_0_r -304265_0_r -283922_0_r -293778_0_r -289886_0_r -283921_0_r -301030_0_r -286679_0_r -291009_0_r -292298_0_r -286678_0_r -300196_0_r -298102_0_r -291559_0_r -298835_0_r -297818_0_r -283919_0_r -299049_0_r -286655_0_r -283900_0_r -281465_0_r -293772_0_r -300189_0_r -288283_0_r -282440_0_r -293462_0_r -292665_0_r -288282_0_r -295599_0</route>
			</leg>
			<activity type="home" link="-295599_0" >
			</activity>
		</plan>

		<plan score="122.18456342576731" selected="no">
			<activity type="home" link="-295599_0" end_time="07:00:01" >
			</activity>
			<leg mode="car" dep_time="07:00:01" trav_time="00:02:39">
				<route type="links" start_link="-295599_0" end_link="-283923_0" trav_time="00:02:39" distance="2864.848595964628">-295599_0 -282415_0 -293457_0 -303405_0 -282416_0 -303669_0 -293772_0 -281465_0 -283900_0 -286655_0 -299049_0 -283919_0 -297818_0 -298835_0 -291559_0 -298102_0 -300196_0 -286678_0 -292298_0 -291009_0 -286679_0 -301030_0 -283921_0 -289886_0 -293778_0 -283922_0 -304265_0 -301526_0 -303561_0 -283923_0</route>
			</leg>
			<activity type="work" link="-283923_0" end_time="11:00:01" >
			</activity>
			<leg mode="car" dep_time="11:00:01" trav_time="00:02:47">
				<route type="links" start_link="-283923_0" end_link="-295599_0" trav_time="00:02:47" distance="3151.977570975267">-283923_0 -288220_0_r -282418_0_r -301526_0_r -304265_0_r -283922_0_r -293778_0_r -289886_0_r -283921_0_r -301030_0_r -286679_0_r -291009_0_r -292298_0_r -286678_0_r -300196_0_r -298102_0_r -291559_0_r -298835_0_r -297818_0_r -283919_0_r -299049_0_r -286655_0_r -283900_0_r -281465_0_r -293772_0_r -300189_0_r -288283_0_r -282440_0_r -293462_0_r -292665_0_r -288282_0_r -295599_0</route>
			</leg>
			<activity type="home" link="-295599_0" >
			</activity>
		</plan>

		<plan score="122.18456342576731" selected="no">
			<activity type="home" link="-295599_0" end_time="07:00:01" >
			</activity>
			<leg mode="car" dep_time="07:00:01" trav_time="00:02:39">
				<route type="links" start_link="-295599_0" end_link="-283923_0" trav_time="00:02:39" distance="2864.848595964628">-295599_0 -282415_0 -293457_0 -303405_0 -282416_0 -303669_0 -293772_0 -281465_0 -283900_0 -286655_0 -299049_0 -283919_0 -297818_0 -298835_0 -291559_0 -298102_0 -300196_0 -286678_0 -292298_0 -291009_0 -286679_0 -301030_0 -283921_0 -289886_0 -293778_0 -283922_0 -304265_0 -301526_0 -303561_0 -283923_0</route>
			</leg>
			<activity type="work" link="-283923_0" end_time="11:00:01" >
			</activity>
			<leg mode="car" dep_time="11:00:01" trav_time="00:02:47">
				<route type="links" start_link="-283923_0" end_link="-295599_0" trav_time="00:02:47" distance="3151.977570975267">-283923_0 -288220_0_r -282418_0_r -301526_0_r -304265_0_r -283922_0_r -293778_0_r -289886_0_r -283921_0_r -301030_0_r -286679_0_r -291009_0_r -292298_0_r -286678_0_r -300196_0_r -298102_0_r -291559_0_r -298835_0_r -297818_0_r -283919_0_r -299049_0_r -286655_0_r -283900_0_r -281465_0_r -293772_0_r -300189_0_r -288283_0_r -282440_0_r -293462_0_r -292665_0_r -288282_0_r -295599_0</route>
			</leg>
			<activity type="home" link="-295599_0" >
			</activity>
		</plan>

		<plan score="122.18456342576731" selected="no">
			<activity type="home" link="-295599_0" end_time="07:00:01" >
			</activity>
			<leg mode="car" dep_time="07:00:01" trav_time="00:02:39">
				<route type="links" start_link="-295599_0" end_link="-283923_0" trav_time="00:02:39" distance="2864.848595964628">-295599_0 -282415_0 -293457_0 -303405_0 -282416_0 -303669_0 -293772_0 -281465_0 -283900_0 -286655_0 -299049_0 -283919_0 -297818_0 -298835_0 -291559_0 -298102_0 -300196_0 -286678_0 -292298_0 -291009_0 -286679_0 -301030_0 -283921_0 -289886_0 -293778_0 -283922_0 -304265_0 -301526_0 -303561_0 -283923_0</route>
			</leg>
			<activity type="work" link="-283923_0" end_time="11:00:01" >
			</activity>
			<leg mode="car" dep_time="11:00:01" trav_time="00:02:47">
				<route type="links" start_link="-283923_0" end_link="-295599_0" trav_time="00:02:47" distance="3151.977570975267">-283923_0 -288220_0_r -282418_0_r -301526_0_r -304265_0_r -283922_0_r -293778_0_r -289886_0_r -283921_0_r -301030_0_r -286679_0_r -291009_0_r -292298_0_r -286678_0_r -300196_0_r -298102_0_r -291559_0_r -298835_0_r -297818_0_r -283919_0_r -299049_0_r -286655_0_r -283900_0_r -281465_0_r -293772_0_r -300189_0_r -288283_0_r -282440_0_r -293462_0_r -292665_0_r -288282_0_r -295599_0</route>
			</leg>
			<activity type="home" link="-295599_0" >
			</activity>
		</plan>

		<plan score="122.18456342576731" selected="no">
			<activity type="home" link="-295599_0" end_time="07:00:01" >
			</activity>
			<leg mode="car" dep_time="07:00:01" trav_time="00:02:39">
				<route type="links" start_link="-295599_0" end_link="-283923_0" trav_time="00:02:39" distance="2864.848595964628">-295599_0 -282415_0 -293457_0 -303405_0 -282416_0 -303669_0 -293772_0 -281465_0 -283900_0 -286655_0 -299049_0 -283919_0 -297818_0 -298835_0 -291559_0 -298102_0 -300196_0 -286678_0 -292298_0 -291009_0 -286679_0 -301030_0 -283921_0 -289886_0 -293778_0 -283922_0 -304265_0 -301526_0 -303561_0 -283923_0</route>
			</leg>
			<activity type="work" link="-283923_0" end_time="11:00:01" >
			</activity>
			<leg mode="car" dep_time="11:00:01" trav_time="00:02:47">
				<route type="links" start_link="-283923_0" end_link="-295599_0" trav_time="00:02:47" distance="3151.977570975267">-283923_0 -288220_0_r -282418_0_r -301526_0_r -304265_0_r -283922_0_r -293778_0_r -289886_0_r -283921_0_r -301030_0_r -286679_0_r -291009_0_r -292298_0_r -286678_0_r -300196_0_r -298102_0_r -291559_0_r -298835_0_r -297818_0_r -283919_0_r -299049_0_r -286655_0_r -283900_0_r -281465_0_r -293772_0_r -300189_0_r -288283_0_r -282440_0_r -293462_0_r -292665_0_r -288282_0_r -295599_0</route>
			</leg>
			<activity type="home" link="-295599_0" >
			</activity>
		</plan>

		<plan score="122.18456342576731" selected="no">
			<activity type="home" link="-295599_0" end_time="07:00:01" >
			</activity>
			<leg mode="car" dep_time="07:00:01" trav_time="00:02:39">
				<route type="links" start_link="-295599_0" end_link="-283923_0" trav_time="00:02:39" distance="2864.848595964628">-295599_0 -282415_0 -293457_0 -303405_0 -282416_0 -303669_0 -293772_0 -281465_0 -283900_0 -286655_0 -299049_0 -283919_0 -297818_0 -298835_0 -291559_0 -298102_0 -300196_0 -286678_0 -292298_0 -291009_0 -286679_0 -301030_0 -283921_0 -289886_0 -293778_0 -283922_0 -304265_0 -301526_0 -303561_0 -283923_0</route>
			</leg>
			<activity type="work" link="-283923_0" end_time="11:00:01" >
			</activity>
			<leg mode="car" dep_time="11:00:01" trav_time="00:02:47">
				<route type="links" start_link="-283923_0" end_link="-295599_0" trav_time="00:02:47" distance="3151.977570975267">-283923_0 -288220_0_r -282418_0_r -301526_0_r -304265_0_r -283922_0_r -293778_0_r -289886_0_r -283921_0_r -301030_0_r -286679_0_r -291009_0_r -292298_0_r -286678_0_r -300196_0_r -298102_0_r -291559_0_r -298835_0_r -297818_0_r -283919_0_r -299049_0_r -286655_0_r -283900_0_r -281465_0_r -293772_0_r -300189_0_r -288283_0_r -282440_0_r -293462_0_r -292665_0_r -288282_0_r -295599_0</route>
			</leg>
			<activity type="home" link="-295599_0" >
			</activity>
		</plan>

		<plan score="122.18456342576731" selected="no">
[...]
			</leg>
			<activity type="home" link="-294827_0_r" >
			</activity>
		</plan>

		<plan score="115.56205291243313" selected="no">
			<activity type="home" link="-294827_0_r" end_time="07:00:18" >
			</activity>
			<leg mode="car" dep_time="07:00:18" trav_time="00:16:20">
				<route type="links" start_link="-294827_0_r" end_link="-295968_0" trav_time="00:16:20" distance="20256.628623079683">-294827_0_r -297978_0_r -292824_0_r -288852_0_r -295913_0_r -299793_0_r -288851_0_r -294661_0_r -296082_0_r -283928_0_r -302565_0_r -302025_0_r -283927_0_r -298873_0_r -299211_0_r -297994_0_r -301032_0_r -302798_0_r -300734_0_r -305056_0_r -301383_0_r -304673_0_r -302443_0_r -282084_0_r -305081_0_r -292847_0_r -298947_1_r -298947_0_r -291364_0_r -282948_0_r -288933_0_r -292539_0_r -284946_0_r -287825_0_r -297398_0_r -296277_0_r -284945_0_r -282085_0_r -294046_0_r -299465_0_r -303960_0_r -287824_0_r -295223_0_r -291751_0_r -284944_0_r -290225_0_r -282843_0_r -300628_0 -290431_0 -302669_0 -299652_0 -304833_0 -288371_0 -287721_0_r -297512_0_r -287710_0_r -300478_0_r -299433_0_r -287077_0_r -296326_1_r -293968_1_r -293968_0_r -296659_0_r -300406_0_r -291686_0_r -281894_0_r -295748_0_r -301263_0_r -287492_0_r -294778_0_r -295176_0_r -287491_0_r -284657_0_r -281893_0_r -287490_0_r -303133_0_r -290121_1_r -300916_0 -303055_0 -283586_0 -302515_0 -281296_0 -289763_0 -296021_0 -289781_0 -290961_0 -286326_0 -292224_0 -293079_0 -300928_0 -297446_0 -304509_0_r -298088_0 -298088_1 -286327_0 -289645_0 -292226_0 -292226_1 -289782_0 -293694_0 -283608_0 -299138_0 -286328_0 -289764_0 -281297_0 -286329_0 -294739_0 -294472_0 -295297_0 -294861_0 -294861_1 -294861_2 -305026_0_r -286192_0 -293664_0_r -304882_0 -290206_0 -303957_0 -286019_0 -297251_0 -301997_0 -283634_0 -295968_0</route>
			</leg>
			<activity type="work" link="-295968_0" end_time="11:00:18" >
			</activity>
			<leg mode="car" dep_time="11:00:18" trav_time="00:16:35">
				<route type="links" start_link="-295968_0" end_link="-294827_0_r" trav_time="00:16:35" distance="20678.509640657056">-295968_0 -303061_0_r -296033_0_r -303590_0_r -286019_0_r -303957_0_r -290206_0_r -304882_0_r -293664_0 -286192_0_r -305026_0 -294861_2_r -294861_1_r -294861_0_r -295297_0_r -300602_0_r -288240_0_r -299611_0_r -291850_0_r -303977_0_r -290381_0_r -288239_0_r -302918_0_r -285233_0_r -294136_0_r -282405_0_r -288238_0_r -285232_0_r -294776_0 -287468_0 -287468_1 -287468_2 -287468_3 -287468_4 -287468_5 -287468_6 -287468_7 -287468_8 -301254_0 -298846_0 -286289_0 -286287_0 -304229_0 -290121_1 -303133_0 -287490_0 -281893_0 -284657_0 -287491_0 -295176_0 -294778_0 -287492_0 -301263_0 -295748_0 -281894_0 -291686_0 -300406_0 -296659_0 -293968_0 -293968_1 -296326_1 -287077_0 -299433_0 -300478_0 -287710_0 -297512_0 -287721_0 -288371_0_r -304833_0_r -299652_0_r -302669_0_r -290431_0_r -300628_0_r -282843_0 -290225_0 -284944_0 -291751_0 -295223_0 -287824_0 -303960_0 -299465_0 -294046_0 -282085_0 -284945_0 -296277_0 -297398_0 -287825_0 -284946_0 -292539_0 -288933_0 -282948_0 -291364_0 -298947_0 -298947_1 -292847_0 -305081_0 -282084_0 -302443_0 -304673_0 -301383_0 -283889_0 -281458_0 -304455_0 -291000_0 -288815_0 -298873_0 -283927_0 -302025_0 -302565_0 -283928_0 -296082_0 -294661_0 -288851_0 -299793_0 -295913_0 -288852_0 -292824_0 -297978_0 -294827_0 -294827_0_r</route>
			</leg>
			<activity type="home" link="-294827_0_r" >
			</activity>
		</plan>

		<plan score="115.56205291243313" selected="no">
			<activity type="home" link="-294827_0_r" end_time="07:00:18" >
			</activity>
			<leg mode="car" dep_time="07:00:18" trav_time="00:16:20">
				<route type="links" start_link="-294827_0_r" end_link="-295968_0" trav_time="00:16:20" distance="20256.628623079683">-294827_0_r -297978_0_r -292824_0_r -288852_0_r -295913_0_r -299793_0_r -288851_0_r -294661_0_r -296082_0_r -283928_0_r -302565_0_r -302025_0_r -283927_0_r -298873_0_r -299211_0_r -297994_0_r -301032_0_r -302798_0_r -300734_0_r -305056_0_r -301383_0_r -304673_0_r -302443_0_r -282084_0_r -305081_0_r -292847_0_r -298947_1_r -298947_0_r -291364_0_r -282948_0_r -288933_0_r -292539_0_r -284946_0_r -287825_0_r -297398_0_r -296277_0_r -284945_0_r -282085_0_r -294046_0_r -299465_0_r -303960_0_r -287824_0_r -295223_0_r -291751_0_r -284944_0_r -290225_0_r -282843_0_r -300628_0 -290431_0 -302669_0 -299652_0 -304833_0 -288371_0 -287721_0_r -297512_0_r -287710_0_r -300478_0_r -299433_0_r -287077_0_r -296326_1_r -293968_1_r -293968_0_r -296659_0_r -300406_0_r -291686_0_r -281894_0_r -295748_0_r -301263_0_r -287492_0_r -294778_0_r -295176_0_r -287491_0_r -284657_0_r -281893_0_r -287490_0_r -303133_0_r -290121_1_r -300916_0 -303055_0 -283586_0 -302515_0 -281296_0 -289763_0 -296021_0 -289781_0 -290961_0 -286326_0 -292224_0 -293079_0 -300928_0 -297446_0 -304509_0_r -298088_0 -298088_1 -286327_0 -289645_0 -292226_0 -292226_1 -289782_0 -293694_0 -283608_0 -299138_0 -286328_0 -289764_0 -281297_0 -286329_0 -294739_0 -294472_0 -295297_0 -294861_0 -294861_1 -294861_2 -305026_0_r -286192_0 -293664_0_r -304882_0 -290206_0 -303957_0 -286019_0 -297251_0 -301997_0 -283634_0 -295968_0</route>
			</leg>
			<activity type="work" link="-295968_0" end_time="11:00:18" >
			</activity>
			<leg mode="car" dep_time="11:00:18" trav_time="00:16:35">
				<route type="links" start_link="-295968_0" end_link="-294827_0_r" trav_time="00:16:35" distance="20678.509640657056">-295968_0 -303061_0_r -296033_0_r -303590_0_r -286019_0_r -303957_0_r -290206_0_r -304882_0_r -293664_0 -286192_0_r -305026_0 -294861_2_r -294861_1_r -294861_0_r -295297_0_r -300602_0_r -288240_0_r -299611_0_r -291850_0_r -303977_0_r -290381_0_r -288239_0_r -302918_0_r -285233_0_r -294136_0_r -282405_0_r -288238_0_r -285232_0_r -294776_0 -287468_0 -287468_1 -287468_2 -287468_3 -287468_4 -287468_5 -287468_6 -287468_7 -287468_8 -301254_0 -298846_0 -286289_0 -286287_0 -304229_0 -290121_1 -303133_0 -287490_0 -281893_0 -284657_0 -287491_0 -295176_0 -294778_0 -287492_0 -301263_0 -295748_0 -281894_0 -291686_0 -300406_0 -296659_0 -293968_0 -293968_1 -296326_1 -287077_0 -299433_0 -300478_0 -287710_0 -297512_0 -287721_0 -288371_0_r -304833_0_r -299652_0_r -302669_0_r -290431_0_r -300628_0_r -282843_0 -290225_0 -284944_0 -291751_0 -295223_0 -287824_0 -303960_0 -299465_0 -294046_0 -282085_0 -284945_0 -296277_0 -297398_0 -287825_0 -284946_0 -292539_0 -288933_0 -282948_0 -291364_0 -298947_0 -298947_1 -292847_0 -305081_0 -282084_0 -302443_0 -304673_0 -301383_0 -283889_0 -281458_0 -304455_0 -291000_0 -288815_0 -298873_0 -283927_0 -302025_0 -302565_0 -283928_0 -296082_0 -294661_0 -288851_0 -299793_0 -295913_0 -288852_0 -292824_0 -297978_0 -294827_0 -294827_0_r</route>
			</leg>
			<activity type="home" link="-294827_0_r" >
			</activity>
		</plan>

		<plan score="115.56205291243313" selected="no">
			<activity type="home" link="-294827_0_r" end_time="07:00:18" >
			</activity>
			<leg mode="car" dep_time="07:00:18" trav_time="00:16:20">
				<route type="links" start_link="-294827_0_r" end_link="-295968_0" trav_time="00:16:20" distance="20256.628623079683">-294827_0_r -297978_0_r -292824_0_r -288852_0_r -295913_0_r -299793_0_r -288851_0_r -294661_0_r -296082_0_r -283928_0_r -302565_0_r -302025_0_r -283927_0_r -298873_0_r -299211_0_r -297994_0_r -301032_0_r -302798_0_r -300734_0_r -305056_0_r -301383_0_r -304673_0_r -302443_0_r -282084_0_r -305081_0_r -292847_0_r -298947_1_r -298947_0_r -291364_0_r -282948_0_r -288933_0_r -292539_0_r -284946_0_r -287825_0_r -297398_0_r -296277_0_r -284945_0_r -282085_0_r -294046_0_r -299465_0_r -303960_0_r -287824_0_r -295223_0_r -291751_0_r -284944_0_r -290225_0_r -282843_0_r -300628_0 -290431_0 -302669_0 -299652_0 -304833_0 -288371_0 -287721_0_r -297512_0_r -287710_0_r -300478_0_r -299433_0_r -287077_0_r -296326_1_r -293968_1_r -293968_0_r -296659_0_r -300406_0_r -291686_0_r -281894_0_r -295748_0_r -301263_0_r -287492_0_r -294778_0_r -295176_0_r -287491_0_r -284657_0_r -281893_0_r -287490_0_r -303133_0_r -290121_1_r -300916_0 -303055_0 -283586_0 -302515_0 -281296_0 -289763_0 -296021_0 -289781_0 -290961_0 -286326_0 -292224_0 -293079_0 -300928_0 -297446_0 -304509_0_r -298088_0 -298088_1 -286327_0 -289645_0 -292226_0 -292226_1 -289782_0 -293694_0 -283608_0 -299138_0 -286328_0 -289764_0 -281297_0 -286329_0 -294739_0 -294472_0 -295297_0 -294861_0 -294861_1 -294861_2 -305026_0_r -286192_0 -293664_0_r -304882_0 -290206_0 -303957_0 -286019_0 -297251_0 -301997_0 -283634_0 -295968_0</route>
			</leg>
			<activity type="work" link="-295968_0" end_time="11:00:18" >
			</activity>
			<leg mode="car" dep_time="11:00:18" trav_time="00:16:35">
				<route type="links" start_link="-295968_0" end_link="-294827_0_r" trav_time="00:16:35" distance="20678.509640657056">-295968_0 -303061_0_r -296033_0_r -303590_0_r -286019_0_r -303957_0_r -290206_0_r -304882_0_r -293664_0 -286192_0_r -305026_0 -294861_2_r -294861_1_r -294861_0_r -295297_0_r -300602_0_r -288240_0_r -299611_0_r -291850_0_r -303977_0_r -290381_0_r -288239_0_r -302918_0_r -285233_0_r -294136_0_r -282405_0_r -288238_0_r -285232_0_r -294776_0 -287468_0 -287468_1 -287468_2 -287468_3 -287468_4 -287468_5 -287468_6 -287468_7 -287468_8 -301254_0 -298846_0 -286289_0 -286287_0 -304229_0 -290121_1 -303133_0 -287490_0 -281893_0 -284657_0 -287491_0 -295176_0 -294778_0 -287492_0 -301263_0 -295748_0 -281894_0 -291686_0 -300406_0 -296659_0 -293968_0 -293968_1 -296326_1 -287077_0 -299433_0 -300478_0 -287710_0 -297512_0 -287721_0 -288371_0_r -304833_0_r -299652_0_r -302669_0_r -290431_0_r -300628_0_r -282843_0 -290225_0 -284944_0 -291751_0 -295223_0 -287824_0 -303960_0 -299465_0 -294046_0 -282085_0 -284945_0 -296277_0 -297398_0 -287825_0 -284946_0 -292539_0 -288933_0 -282948_0 -291364_0 -298947_0 -298947_1 -292847_0 -305081_0 -282084_0 -302443_0 -304673_0 -301383_0 -283889_0 -281458_0 -304455_0 -291000_0 -288815_0 -298873_0 -283927_0 -302025_0 -302565_0 -283928_0 -296082_0 -294661_0 -288851_0 -299793_0 -295913_0 -288852_0 -292824_0 -297978_0 -294827_0 -294827_0_r</route>
			</leg>
			<activity type="home" link="-294827_0_r" >
			</activity>
		</plan>

		<plan score="115.54361302625705" selected="no">
			<activity type="home" link="-294827_0_r" end_time="07:00:18" >
			</activity>
			<leg mode="car" dep_time="07:00:18" trav_time="00:16:15">
				<route type="links" start_link="-294827_0_r" end_link="-295968_0" trav_time="00:16:15" distance="20401.81879497097">-294827_0_r -297978_0_r -292824_0_r -288852_0_r -295913_0_r -299793_0_r -288851_0_r -294661_0_r -296082_0_r -283928_0_r -302565_0_r -302025_0_r -283927_0_r -298873_0_r -299211_0_r -297994_0_r -301032_0_r -302798_0_r -300734_0_r -305056_0_r -301383_0_r -304673_0_r -302443_0_r -282084_0_r -305081_0_r -292847_0_r -298947_1_r -302425_0_r -287509_2_r -287509_1_r -287509_0_r -291691_0_r -284673_1_r -292562_0_r -303034_0_r -289537_0_r -289738_0_r -293653_0_r -298258_0_r -296559_0_r -283419_0_r -286137_0_r -296785_0 -282152_0 -295805_0 -304127_0 -304257_0 -301411_0 -296326_1_r -293968_1_r -293968_0_r -296659_0_r -300406_0_r -291686_0_r -281894_0_r -295748_0_r -301263_0_r -287492_0_r -294778_0_r -295176_0_r -287491_0_r -284657_0_r -281893_0_r -287490_0_r -303133_0_r -290121_1_r -300916_0 -303055_0 -283586_0 -302515_0 -281296_0 -289763_0 -296021_0 -289781_0 -290961_0 -286326_0 -292224_0 -293079_0 -300928_0 -297446_0 -304509_0_r -298088_0 -298088_1 -286327_0 -289645_0 -292226_0 -292226_1 -289782_0 -293694_0 -283608_0 -299138_0 -286328_0 -289764_0 -281297_0 -286329_0 -294739_0 -294472_0 -295297_0 -294861_0 -294861_1 -294861_2 -305026_0_r -286192_0 -293664_0_r -304882_0 -290206_0 -303957_0 -286019_0 -297251_0 -301997_0 -283634_0 -295968_0</route>
			</leg>
			<activity type="work" link="-295968_0" end_time="11:00:18" >
			</activity>
			<leg mode="car" dep_time="11:00:18" trav_time="00:16:27">
				<route type="links" start_link="-295968_0" end_link="-294827_0_r" trav_time="00:16:27" distance="20940.266335111985">-295968_0 -303061_0_r -296033_0_r -303590_0_r -286019_0_r -303957_0_r -290206_0_r -304882_0_r -293664_0 -286192_0_r -305026_0 -294861_2_r -294861_1_r -294861_0_r -295297_0_r -300602_0_r -288240_0_r -299611_0_r -291850_0_r -303977_0_r -290381_0_r -288239_0_r -302918_0_r -285233_0_r -294136_0_r -282405_0_r -288238_0_r -285232_0_r -294776_0 -287468_0 -287468_1 -287468_2 -287468_3 -287468_4 -287468_5 -287468_6 -287468_7 -287468_8 -301254_0 -298846_0 -286289_0 -286287_0 -304229_0 -290121_1 -303133_0 -287490_0 -281893_0 -284657_0 -287491_0 -295176_0 -294778_0 -287492_0 -301263_0 -295748_0 -281894_0 -291686_0 -300406_0 -296659_0 -293968_0 -293968_1 -296326_1 -301411_0_r -304257_0_r -304127_0_r -295805_0_r -282152_0_r -296785_0_r -286137_0 -283419_0 -296559_0 -298258_0 -293653_0 -289738_0 -289537_0 -303034_0 -292562_0 -284673_1 -291691_0 -287509_0 -287509_1 -287509_2 -297731_0_r -286472_0_r -292847_0 -305081_0 -282084_0 -302443_0 -286595_0 -293134_0 -297880_0 -292282_0 -283846_0 -296067_0 -304235_0 -283847_0 -286596_0 -299193_0 -283848_0 -293758_0 -282881_0 -300718_0 -296965_0 -282882_0 -296447_0 -304839_0 -294661_0 -288851_0 -299793_0 -295913_0 -288852_0 -292824_0 -297978_0 -294827_0 -294827_0_r</route>
			</leg>
			<activity type="home" link="-294827_0_r" >
			</activity>
		</plan>

		<plan score="115.56205291243313" selected="no">
			<activity type="home" link="-294827_0_r" end_time="07:00:18" >
			</activity>
			<leg mode="car" dep_time="07:00:18" trav_time="00:16:20">
				<route type="links" start_link="-294827_0_r" end_link="-295968_0" trav_time="00:16:20" distance="20256.628623079683">-294827_0_r -297978_0_r -292824_0_r -288852_0_r -295913_0_r -299793_0_r -288851_0_r -294661_0_r -296082_0_r -283928_0_r -302565_0_r -302025_0_r -283927_0_r -298873_0_r -299211_0_r -297994_0_r -301032_0_r -302798_0_r -300734_0_r -305056_0_r -301383_0_r -304673_0_r -302443_0_r -282084_0_r -305081_0_r -292847_0_r -298947_1_r -298947_0_r -291364_0_r -282948_0_r -288933_0_r -292539_0_r -284946_0_r -287825_0_r -297398_0_r -296277_0_r -284945_0_r -282085_0_r -294046_0_r -299465_0_r -303960_0_r -287824_0_r -295223_0_r -291751_0_r -284944_0_r -290225_0_r -282843_0_r -300628_0 -290431_0 -302669_0 -299652_0 -304833_0 -288371_0 -287721_0_r -297512_0_r -287710_0_r -300478_0_r -299433_0_r -287077_0_r -296326_1_r -293968_1_r -293968_0_r -296659_0_r -300406_0_r -291686_0_r -281894_0_r -295748_0_r -301263_0_r -287492_0_r -294778_0_r -295176_0_r -287491_0_r -284657_0_r -281893_0_r -287490_0_r -303133_0_r -290121_1_r -300916_0 -303055_0 -283586_0 -302515_0 -281296_0 -289763_0 -296021_0 -289781_0 -290961_0 -286326_0 -292224_0 -293079_0 -300928_0 -297446_0 -304509_0_r -298088_0 -298088_1 -286327_0 -289645_0 -292226_0 -292226_1 -289782_0 -293694_0 -283608_0 -299138_0 -286328_0 -289764_0 -281297_0 -286329_0 -294739_0 -294472_0 -295297_0 -294861_0 -294861_1 -294861_2 -305026_0_r -286192_0 -293664_0_r -304882_0 -290206_0 -303957_0 -286019_0 -297251_0 -301997_0 -283634_0 -295968_0</route>
			</leg>
			<activity type="work" link="-295968_0" end_time="11:00:18" >
			</activity>
			<leg mode="car" dep_time="11:00:18" trav_time="00:16:35">
				<route type="links" start_link="-295968_0" end_link="-294827_0_r" trav_time="00:16:35" distance="20678.509640657056">-295968_0 -303061_0_r -296033_0_r -303590_0_r -286019_0_r -303957_0_r -290206_0_r -304882_0_r -293664_0 -286192_0_r -305026_0 -294861_2_r -294861_1_r -294861_0_r -295297_0_r -300602_0_r -288240_0_r -299611_0_r -291850_0_r -303977_0_r -290381_0_r -288239_0_r -302918_0_r -285233_0_r -294136_0_r -282405_0_r -288238_0_r -285232_0_r -294776_0 -287468_0 -287468_1 -287468_2 -287468_3 -287468_4 -287468_5 -287468_6 -287468_7 -287468_8 -301254_0 -298846_0 -286289_0 -286287_0 -304229_0 -290121_1 -303133_0 -287490_0 -281893_0 -284657_0 -287491_0 -295176_0 -294778_0 -287492_0 -301263_0 -295748_0 -281894_0 -291686_0 -300406_0 -296659_0 -293968_0 -293968_1 -296326_1 -287077_0 -299433_0 -300478_0 -287710_0 -297512_0 -287721_0 -288371_0_r -304833_0_r -299652_0_r -302669_0_r -290431_0_r -300628_0_r -282843_0 -290225_0 -284944_0 -291751_0 -295223_0 -287824_0 -303960_0 -299465_0 -294046_0 -282085_0 -284945_0 -296277_0 -297398_0 -287825_0 -284946_0 -292539_0 -288933_0 -282948_0 -291364_0 -298947_0 -298947_1 -292847_0 -305081_0 -282084_0 -302443_0 -304673_0 -301383_0 -283889_0 -281458_0 -304455_0 -291000_0 -288815_0 -298873_0 -283927_0 -302025_0 -302565_0 -283928_0 -296082_0 -294661_0 -288851_0 -299793_0 -295913_0 -288852_0 -292824_0 -297978_0 -294827_0 -294827_0_r</route>
			</leg>
			<activity type="home" link="-294827_0_r" >
			</activity>
		</plan>

		<plan score="115.56205291243313" selected="no">
			<activity type="home" link="-294827_0_r" end_time="07:00:18" >
			</activity>
			<leg mode="car" dep_time="07:00:18" trav_time="00:16:20">
				<route type="links" start_link="-294827_0_r" end_link="-295968_0" trav_time="00:16:20" distance="20256.628623079683">-294827_0_r -297978_0_r -292824_0_r -288852_0_r -295913_0_r -299793_0_r -288851_0_r -294661_0_r -296082_0_r -283928_0_r -302565_0_r -302025_0_r -283927_0_r -298873_0_r -299211_0_r -297994_0_r -301032_0_r -302798_0_r -300734_0_r -305056_0_r -301383_0_r -304673_0_r -302443_0_r -282084_0_r -305081_0_r -292847_0_r -298947_1_r -298947_0_r -291364_0_r -282948_0_r -288933_0_r -292539_0_r -284946_0_r -287825_0_r -297398_0_r -296277_0_r -284945_0_r -282085_0_r -294046_0_r -299465_0_r -303960_0_r -287824_0_r -295223_0_r -291751_0_r -284944_0_r -290225_0_r -282843_0_r -300628_0 -290431_0 -302669_0 -299652_0 -304833_0 -288371_0 -287721_0_r -297512_0_r -287710_0_r -300478_0_r -299433_0_r -287077_0_r -296326_1_r -293968_1_r -293968_0_r -296659_0_r -300406_0_r -291686_0_r -281894_0_r -295748_0_r -301263_0_r -287492_0_r -294778_0_r -295176_0_r -287491_0_r -284657_0_r -281893_0_r -287490_0_r -303133_0_r -290121_1_r -300916_0 -303055_0 -283586_0 -302515_0 -281296_0 -289763_0 -296021_0 -289781_0 -290961_0 -286326_0 -292224_0 -293079_0 -300928_0 -297446_0 -304509_0_r -298088_0 -298088_1 -286327_0 -289645_0 -292226_0 -292226_1 -289782_0 -293694_0 -283608_0 -299138_0 -286328_0 -289764_0 -281297_0 -286329_0 -294739_0 -294472_0 -295297_0 -294861_0 -294861_1 -294861_2 -305026_0_r -286192_0 -293664_0_r -304882_0 -290206_0 -303957_0 -286019_0 -297251_0 -301997_0 -283634_0 -295968_0</route>
			</leg>
			<activity type="work" link="-295968_0" end_time="11:00:18" >
			</activity>
			<leg mode="car" dep_time="11:00:18" trav_time="00:16:35">
				<route type="links" start_link="-295968_0" end_link="-294827_0_r" trav_time="00:16:35" distance="20678.509640657056">-295968_0 -303061_0_r -296033_0_r -303590_0_r -286019_0_r -303957_0_r -290206_0_r -304882_0_r -293664_0 -286192_0_r -305026_0 -294861_2_r -294861_1_r -294861_0_r -295297_0_r -300602_0_r -288240_0_r -299611_0_r -291850_0_r -303977_0_r -290381_0_r -288239_0_r -302918_0_r -285233_0_r -294136_0_r -282405_0_r -288238_0_r -285232_0_r -294776_0 -287468_0 -287468_1 -287468_2 -287468_3 -287468_4 -287468_5 -287468_6 -287468_7 -287468_8 -301254_0 -298846_0 -286289_0 -286287_0 -304229_0 -290121_1 -303133_0 -287490_0 -281893_0 -284657_0 -287491_0 -295176_0 -294778_0 -287492_0 -301263_0 -295748_0 -281894_0 -291686_0 -300406_0 -296659_0 -293968_0 -293968_1 -296326_1 -287077_0 -299433_0 -300478_0 -287710_0 -297512_0 -287721_0 -288371_0_r -304833_0_r -299652_0_r -302669_0_r -290431_0_r -300628_0_r -282843_0 -290225_0 -284944_0 -291751_0 -295223_0 -287824_0 -303960_0 -299465_0 -294046_0 -282085_0 -284945_0 -296277_0 -297398_0 -287825_0 -284946_0 -292539_0 -288933_0 -282948_0 -291364_0 -298947_0 -298947_1 -292847_0 -305081_0 -282084_0 -302443_0 -304673_0 -301383_0 -283889_0 -281458_0 -304455_0 -291000_0 -288815_0 -298873_0 -283927_0 -302025_0 -302565_0 -283928_0 -296082_0 -294661_0 -288851_0 -299793_0 -295913_0 -288852_0 -292824_0 -297978_0 -294827_0 -294827_0_r</route>
			</leg>
			<activity type="home" link="-294827_0_r" >
			</activity>
		</plan>

	</person>

<!-- ====================================================================== -->

</population>
