<?xml version="1.0" encoding="utf-8"?>
<!DOCTYPE population SYSTEM "http://www.matsim.org/files/dtd/population_v6.dtd">

<population>



<!-- ====================================================================== -->

	<person id="1">
		<plan score="54.49783551877037" selected="yes">
			<activity type="h" link="1" x="-25000.0" y="0.0" end_time="06:00:00" >
			</activity>
			<leg mode="car">
				<route type="links" start_link="1" end_link="21" trav_time="undefined" distance="35000.0">1 2 11 20 21</route>
			</leg>
			<activity type="w" link="21" x="10000.0" y="0.0" max_dur="00:10:00" >
			</activity>
			<leg mode="car">
				<route type="links" start_link="21" end_link="21" trav_time="undefined" distance="0.0">21</route>
			</leg>
			<activity type="w" link="21" x="10000.0" y="0.0" max_dur="03:30:00" >
			</activity>
			<leg mode="car">
				<route type="links" start_link="21" end_link="1" trav_time="undefined" distance="55000.0">21 22 23 1</route>
			</leg>
			<activity type="h" link="1" x="-25000.0" y="0.0" >
			</activity>
		</plan>

	</person>

<!-- ====================================================================== -->

	<person id="10">
		<plan score="64.17145955109275" selected="no">
			<activity type="h" link="1" x="-25000.0" y="0.0" end_time="06:00:00" >
			</activity>
			<leg mode="car">
				<route type="links" start_link="1" end_link="21" trav_time="undefined" distance="35000.0">1 6 15 20 21</route>
			</leg>
			<activity type="w" link="21" x="10000.0" y="0.0" max_dur="00:30:00" >
			</activity>
			<leg mode="car">
				<route type="links" start_link="21" end_link="1" trav_time="undefined" distance="55000.0">21 22 23 1</route>
			</leg>
			<activity type="h" link="1" x="-25000.0" y="0.0" >
			</activity>
		</plan>

		<plan score="64.17911446729727" selected="yes">
			<activity type="h" link="1" x="-25000.0" y="0.0" end_time="06:00:00" >
			</activity>
			<leg mode="car" dep_time="06:00:00" trav_time="00:14:59">
				<route type="links" start_link="1" end_link="21" trav_time="00:14:59" distance="35000.0">1 3 12 20 21</route>
			</leg>
			<activity type="w" link="21" x="10000.0" y="0.0" max_dur="00:30:00" >
			</activity>
			<leg mode="car" dep_time="06:44:59" trav_time="00:26:59">
				<route type="links" start_link="21" end_link="1" trav_time="00:26:59" distance="55000.0">21 22 23 1</route>
			</leg>
			<activity type="h" link="1" x="-25000.0" y="0.0" >
			</activity>
		</plan>

	</person>

<!-- ====================================================================== -->

	<person id="2">
		<plan score="87.40877878559202" selected="yes">
			<activity type="h" link="1" x="-25000.0" y="0.0" end_time="05:59:00" >
			</activity>
			<leg mode="car">
				<route type="links" start_link="1" end_link="21" trav_time="undefined" distance="35000.0">1 3 12 20 21</route>
			</leg>
			<activity type="w" link="21" x="10000.0" y="0.0" max_dur="02:30:00" >
			</activity>
			<leg mode="car">
				<route type="links" start_link="21" end_link="1" trav_time="undefined" distance="55000.0">21 22 23 1</route>
			</leg>
			<activity type="h" link="1" x="-25000.0" y="0.0" >
			</activity>
		</plan>

	</person>

<!-- ====================================================================== -->

	<person id="3">
		<plan score="74.37613492382484" selected="no">
			<activity type="h" link="1" x="-25000.0" y="0.0" end_time="05:58:30" >
			</activity>
			<leg mode="car">
				<route type="links" start_link="1" end_link="21" trav_time="undefined" distance="35000.0">1 4 13 20 21</route>
			</leg>
			<activity type="w" link="21" x="10000.0" y="0.0" max_dur="01:30:00" >
			</activity>
			<leg mode="car">
				<route type="links" start_link="21" end_link="1" trav_time="undefined" distance="55000.0">21 22 23 1</route>
			</leg>
			<activity type="h" link="1" x="-25000.0" y="0.0" >
			</activity>
		</plan>

		<plan score="74.37613492382484" selected="yes">
			<activity type="h" link="1" x="-25000.0" y="0.0" end_time="05:58:30" >
			</activity>
			<leg mode="car" dep_time="05:58:30" trav_time="00:14:59">
				<route type="links" start_link="1" end_link="21" trav_time="00:14:59" distance="35000.0">1 2 11 20 21</route>
			</leg>
			<activity type="w" link="21" x="10000.0" y="0.0" max_dur="01:30:00" >
			</activity>
			<leg mode="car" dep_time="07:43:29" trav_time="00:26:59">
				<route type="links" start_link="21" end_link="1" trav_time="00:26:59" distance="55000.0">21 22 23 1</route>
			</leg>
			<activity type="h" link="1" x="-25000.0" y="0.0" >
			</activity>
		</plan>

	</person>

<!-- ====================================================================== -->

	<person id="4">
		<plan score="87.54469287701498" selected="yes">
			<activity type="h" link="1" x="-25000.0" y="0.0" end_time="05:59:30" >
			</activity>
			<leg mode="car">
				<route type="links" start_link="1" end_link="21" trav_time="undefined" distance="35000.0">1 5 14 20 21</route>
			</leg>
			<activity type="w" link="21" x="10000.0" y="0.0" max_dur="02:30:00" >
			</activity>
			<leg mode="car">
				<route type="links" start_link="21" end_link="1" trav_time="undefined" distance="55000.0">21 22 23 1</route>
			</leg>
			<activity type="h" link="1" x="-25000.0" y="0.0" >
			</activity>
		</plan>

	</person>

<!-- ====================================================================== -->

	<person id="5">
		<plan score="122.93972102043242" selected="yes">
			<activity type="h" link="1" x="-25000.0" y="0.0" end_time="06:00:00" >
			</activity>
			<leg mode="car">
				<route type="links" start_link="1" end_link="21" trav_time="undefined" distance="35000.0">1 6 15 20 21</route>
			</leg>
			<activity type="w" link="21" x="10000.0" y="0.0" max_dur="06:30:00" >
			</activity>
			<leg mode="car">
				<route type="links" start_link="21" end_link="1" trav_time="undefined" distance="55000.0">21 22 23 1</route>
			</leg>
			<activity type="h" link="1" x="-25000.0" y="0.0" >
			</activity>
		</plan>

	</person>

<!-- ====================================================================== -->

	<person id="6">
		<plan score="64.17911446729727" selected="yes">
			<activity type="h" link="1" x="-25000.0" y="0.0" end_time="06:00:00" >
			</activity>
			<leg mode="car">
				<route type="links" start_link="1" end_link="21" trav_time="undefined" distance="35000.0">1 7 16 20 21</route>
			</leg>
			<activity type="w" link="21" x="10000.0" y="0.0" max_dur="00:30:00" >
			</activity>
			<leg mode="car">
				<route type="links" start_link="21" end_link="1" trav_time="undefined" distance="55000.0">21 22 23 1</route>
			</leg>
			<activity type="h" link="1" x="-25000.0" y="0.0" >
			</activity>
		</plan>

	</person>

<!-- ====================================================================== -->

	<person id="7">
		<plan score="64.17911446729727" selected="yes">
			<activity type="h" link="1" x="-25000.0" y="0.0" end_time="06:00:00" >
			</activity>
			<leg mode="car">
				<route type="links" start_link="1" end_link="21" trav_time="undefined" distance="35000.0">1 8 17 20 21</route>
			</leg>
			<activity type="w" link="21" x="10000.0" y="0.0" max_dur="00:30:00" >
			</activity>
			<leg mode="car">
				<route type="links" start_link="21" end_link="1" trav_time="undefined" distance="55000.0">21 22 23 1</route>
			</leg>
			<activity type="h" link="1" x="-25000.0" y="0.0" >
			</activity>
		</plan>

	</person>

<!-- ====================================================================== -->

	<person id="8">
		<plan score="64.17911446729727" selected="yes">
			<activity type="h" link="1" x="-25000.0" y="0.0" end_time="06:00:00" >
			</activity>
			<leg mode="car">
				<route type="links" start_link="1" end_link="21" trav_time="undefined" distance="35000.0">1 9 18 20 21</route>
			</leg>
			<activity type="w" link="21" x="10000.0" y="0.0" max_dur="00:30:00" >
			</activity>
			<leg mode="car">
				<route type="links" start_link="21" end_link="1" trav_time="undefined" distance="55000.0">21 22 23 1</route>
			</leg>
			<activity type="h" link="1" x="-25000.0" y="0.0" >
			</activity>
		</plan>

	</person>

<!-- ====================================================================== -->

	<person id="9">
		<plan score="64.17911446729727" selected="yes">
			<activity type="h" link="1" x="-25000.0" y="0.0" end_time="06:00:00" >
			</activity>
			<leg mode="car">
				<route type="links" start_link="1" end_link="21" trav_time="undefined" distance="35000.0">1 10 19 20 21</route>
			</leg>
			<activity type="w" link="21" x="10000.0" y="0.0" max_dur="00:30:00" >
			</activity>
			<leg mode="car">
				<route type="links" start_link="21" end_link="1" trav_time="undefined" distance="55000.0">21 22 23 1</route>
			</leg>
			<activity type="h" link="1" x="-25000.0" y="0.0" >
			</activity>
		</plan>

	</person>

<!-- ====================================================================== -->

</population>
